Network_13R-103/scenario_75/case.raw
0,100.0,33,0,0,60.0
GRID OPTIMIZATION COMPETITION
INPUT DATA FILES ARE RAW ROP INL CON
1,'            ',115.0,1,1,1,1,1.0512513,34.474338,1.1,0.9,1.1,0.9
2,'            ',115.0,1,1,1,1,1.050582,33.329766,1.1,0.9,1.1,0.9
3,'            ',115.0,1,1,1,1,1.043102,38.849514,1.1,0.9,1.1,0.9
4,'            ',115.0,1,1,1,1,1.0445441,30.923104,1.1,0.9,1.1,0.9
5,'            ',115.0,1,1,1,1,1.0445688,30.926101,1.1,0.9,1.1,0.9
6,'            ',115.0,1,1,1,1,1.0430185,44.34598,1.1,0.9,1.1,0.9
7,'            ',115.0,1,1,1,1,1.0446025,44.417857,1.1,0.9,1.1,0.9
8,'            ',115.0,1,1,1,1,1.0528127,28.924085,1.1,0.9,1.1,0.9
9,'            ',115.0,1,1,1,1,1.0504104,30.164698,1.1,0.9,1.1,0.9
10,'            ',115.0,1,1,1,1,1.0490923,34.613686,1.1,0.9,1.1,0.9
11,'            ',115.0,1,1,1,1,1.0540081,36.522248,1.1,0.9,1.1,0.9
12,'            ',230.0,1,1,1,1,1.0465312,38.567368,1.1,0.9,1.1,0.9
13,'            ',115.0,1,1,1,1,1.0556639,37.457037,1.1,0.9,1.1,0.9
14,'            ',230.0,1,1,1,1,1.0464604,38.560529,1.1,0.9,1.1,0.9
15,'            ',230.0,1,1,1,1,1.0467954,38.592152,1.1,0.9,1.1,0.9
16,'            ',230.0,1,1,1,1,1.0617988,34.265453,1.1,0.9,1.1,0.9
17,'            ',115.0,1,1,1,1,1.0627544,33.863579,1.1,0.9,1.1,0.9
18,'            ',230.0,1,1,1,1,1.0617317,34.25559,1.1,0.9,1.1,0.9
19,'            ',230.0,1,1,1,1,1.0618592,34.285066,1.1,0.9,1.1,0.9
20,'            ',230.0,1,1,1,1,1.0492117,33.492511,1.1,0.9,1.1,0.9
21,'            ',115.0,1,1,1,1,1.0606309,32.208338,1.1,0.9,1.1,0.9
22,'            ',230.0,1,1,1,1,1.0497599,33.523839,1.1,0.9,1.1,0.9
23,'            ',230.0,1,1,1,1,1.0492117,33.492511,1.1,0.9,1.1,0.9
24,'            ',115.0,1,1,1,1,1.0412357,37.996737,1.1,0.9,1.1,0.9
25,'            ',115.0,1,1,1,1,1.0431219,37.952332,1.1,0.9,1.1,0.9
26,'            ',115.0,1,1,1,1,1.0443757,46.337739,1.1,0.9,1.1,0.9
27,'            ',500.0,1,1,1,1,1.0425,38.1242,1.1,0.9,1.1,0.9
28,'            ',230.0,1,1,1,1,1.0486644,39.372958,1.1,0.9,1.1,0.9
29,'            ',115.0,1,1,1,1,1.0520773,38.620991,1.1,0.9,1.1,0.9
30,'            ',500.0,1,1,1,1,1.0422366,38.102614,1.1,0.9,1.1,0.9
31,'            ',230.0,1,1,1,1,1.0481949,39.582827,1.1,0.9,1.1,0.9
32,'            ',115.0,1,1,1,1,1.0412038,38.123622,1.1,0.9,1.1,0.9
33,'            ',115.0,1,1,1,1,1.0410703,38.106459,1.1,0.9,1.1,0.9
34,'            ',115.0,1,1,1,1,1.0472538,27.495391,1.1,0.9,1.1,0.9
35,'            ',115.0,1,1,1,1,1.0553719,29.507153,1.1,0.9,1.1,0.9
36,'            ',115.0,1,1,1,1,1.0553223,29.502028,1.1,0.9,1.1,0.9
37,'            ',230.0,1,1,1,1,1.0515772,31.554122,1.1,0.9,1.1,0.9
38,'            ',115.0,1,1,1,1,1.0628348,29.940188,1.1,0.9,1.1,0.9
39,'            ',230.0,1,1,1,1,1.0514068,31.542622,1.1,0.9,1.1,0.9
40,'            ',115.0,1,1,1,1,1.047112,36.604765,1.1,0.9,1.1,0.9
41,'            ',115.0,1,1,1,1,1.0417161,38.120117,1.1,0.9,1.1,0.9
42,'            ',115.0,1,1,1,1,1.0467366,36.930256,1.1,0.9,1.1,0.9
43,'            ',115.0,1,1,1,1,1.0426621,38.264637,1.1,0.9,1.1,0.9
44,'            ',115.0,1,1,1,1,1.0481408,38.441657,1.1,0.9,1.1,0.9
45,'            ',115.0,1,1,1,1,1.0457686,38.410004,1.1,0.9,1.1,0.9
46,'            ',115.0,1,1,1,1,1.0551854,27.932305,1.1,0.9,1.1,0.9
47,'            ',115.0,1,1,1,1,1.0355,29.859589,1.1,0.9,1.1,0.9
48,'            ',115.0,1,1,1,1,1.0358904,30.079735,1.1,0.9,1.1,0.9
49,'            ',115.0,1,1,1,1,1.0355,43.461862,1.1,0.9,1.1,0.9
50,'            ',115.0,1,1,1,1,1.0355717,43.461911,1.1,0.9,1.1,0.9
51,'            ',115.0,1,1,1,1,1.0522239,36.05583,1.1,0.9,1.1,0.9
52,'            ',115.0,1,1,1,1,1.0555801,36.183952,1.1,0.9,1.1,0.9
53,'            ',115.0,1,1,1,1,1.0556916,36.195251,1.1,0.9,1.1,0.9
54,'            ',115.0,1,1,1,1,1.0508781,36.178518,1.1,0.9,1.1,0.9
55,'            ',115.0,1,1,1,1,1.0507951,36.166978,1.1,0.9,1.1,0.9
56,'            ',115.0,1,1,1,1,1.0528037,26.898927,1.1,0.9,1.1,0.9
57,'            ',115.0,1,1,1,1,1.0527704,26.894467,1.1,0.9,1.1,0.9
58,'            ',115.0,1,1,1,1,1.0542883,36.160116,1.1,0.9,1.1,0.9
59,'            ',115.0,1,1,1,1,1.0561967,36.186619,1.1,0.9,1.1,0.9
60,'            ',115.0,1,1,1,1,1.0525144,36.415447,1.1,0.9,1.1,0.9
61,'            ',115.0,1,1,1,1,1.0524803,36.410354,1.1,0.9,1.1,0.9
62,'            ',115.0,1,1,1,1,1.0427031,29.015671,1.1,0.9,1.1,0.9
63,'            ',230.0,1,1,1,1,1.0380623,38.120654,1.1,0.9,1.1,0.9
64,'            ',115.0,1,1,1,1,1.0610381,36.48131,1.1,0.9,1.1,0.9
65,'            ',230.0,1,1,1,1,1.0391523,38.175321,1.1,0.9,1.1,0.9
66,'            ',230.0,1,1,1,1,1.0378572,38.096001,1.1,0.9,1.1,0.9
67,'            ',115.0,1,1,1,1,1.0557708,36.476531,1.1,0.9,1.1,0.9
68,'            ',115.0,1,1,1,1,1.0583303,32.566579,1.1,0.9,1.1,0.9
69,'            ',115.0,1,1,1,1,1.0582723,32.560417,1.1,0.9,1.1,0.9
70,'            ',115.0,1,1,1,1,1.0590505,32.749273,1.1,0.9,1.1,0.9
71,'            ',115.0,1,1,1,1,1.0396585,31.6862,1.1,0.9,1.1,0.9
72,'            ',230.0,1,1,1,1,1.0418358,32.876379,1.1,0.9,1.1,0.9
73,'            ',115.0,1,1,1,1,1.0424531,32.586763,1.1,0.9,1.1,0.9
74,'            ',230.0,1,1,1,1,1.0417994,32.868596,1.1,0.9,1.1,0.9
75,'            ',230.0,1,1,1,1,1.0424077,32.898512,1.1,0.9,1.1,0.9
76,'            ',115.0,1,1,1,1,1.0520068,36.306391,1.1,0.9,1.1,0.9
77,'            ',115.0,1,1,1,1,1.0495868,36.682799,1.1,0.9,1.1,0.9
78,'            ',115.0,1,1,1,1,1.0574036,31.48919,1.1,0.9,1.1,0.9
79,'            ',230.0,1,1,1,1,1.0418137,29.819708,1.1,0.9,1.1,0.9
80,'            ',115.0,1,1,1,1,1.0574802,28.782951,1.1,0.9,1.1,0.9
81,'            ',230.0,1,1,1,1,1.0426506,29.870438,1.1,0.9,1.1,0.9
82,'            ',230.0,1,1,1,1,1.0415918,29.7837,1.1,0.9,1.1,0.9
83,'            ',115.0,1,1,1,1,1.0450415,28.514597,1.1,0.9,1.1,0.9
84,'            ',115.0,1,1,1,1,1.0448425,28.498324,1.1,0.9,1.1,0.9
85,'            ',115.0,1,1,1,1,1.0452201,28.531267,1.1,0.9,1.1,0.9
86,'            ',115.0,1,1,1,1,1.0385491,43.559826,1.1,0.9,1.1,0.9
87,'            ',115.0,1,1,1,1,1.0440031,28.718043,1.1,0.9,1.1,0.9
88,'            ',115.0,1,1,1,1,1.0437212,28.705003,1.1,0.9,1.1,0.9
89,'            ',115.0,1,1,1,1,1.0434013,28.481333,1.1,0.9,1.1,0.9
90,'            ',115.0,1,1,1,1,1.0432586,28.469608,1.1,0.9,1.1,0.9
91,'            ',500.0,1,1,1,1,1.0465022,30.916032,1.1,0.9,1.1,0.9
92,'            ',230.0,1,1,1,1,1.0503299,30.457749,1.1,0.9,1.1,0.9
93,'            ',115.0,1,1,1,1,1.0550922,29.477741,1.1,0.9,1.1,0.9
94,'            ',500.0,1,1,1,1,1.0462659,30.891987,1.1,0.9,1.1,0.9
95,'            ',500.0,1,1,1,1,1.0492136,30.987187,1.1,0.9,1.1,0.9
96,'            ',115.0,1,1,1,1,1.0552076,26.322257,1.1,0.9,1.1,0.9
97,'            ',115.0,1,1,1,1,1.0538788,29.558979,1.1,0.9,1.1,0.9
98,'            ',115.0,1,1,1,1,1.0468465,28.152642,1.1,0.9,1.1,0.9
99,'            ',115.0,1,1,1,1,1.0520986,29.448328,1.1,0.9,1.1,0.9
100,'            ',115.0,1,1,1,1,1.0520324,29.440724,1.1,0.9,1.1,0.9
101,'            ',115.0,1,1,1,1,1.0523149,28.358348,1.1,0.9,1.1,0.9
102,'            ',115.0,1,1,1,1,1.0536742,28.409573,1.1,0.9,1.1,0.9
103,'            ',115.0,1,1,1,1,1.0536036,28.398072,1.1,0.9,1.1,0.9
104,'            ',115.0,1,1,1,1,1.0544988,31.336195,1.1,0.9,1.1,0.9
105,'            ',115.0,1,1,1,1,1.0524339,30.188103,1.1,0.9,1.1,0.9
106,'            ',115.0,1,1,1,1,1.0520685,30.166684,1.1,0.9,1.1,0.9
107,'            ',230.0,1,1,1,1,1.033866,32.262736,1.1,0.9,1.1,0.9
108,'            ',115.0,1,1,1,1,1.0563438,30.646057,1.1,0.9,1.1,0.9
109,'            ',230.0,1,1,1,1,1.0336778,32.233978,1.1,0.9,1.1,0.9
110,'            ',230.0,1,1,1,1,1.0349781,32.322739,1.1,0.9,1.1,0.9
111,'            ',115.0,1,1,1,1,1.0534985,30.449347,1.1,0.9,1.1,0.9
112,'            ',115.0,1,1,1,1,1.0533868,30.440419,1.1,0.9,1.1,0.9
113,'            ',115.0,1,1,1,1,1.0497905,30.550096,1.1,0.9,1.1,0.9
114,'            ',115.0,1,1,1,1,1.0439078,28.595531,1.1,0.9,1.1,0.9
115,'            ',230.0,1,1,1,1,1.0494362,30.2598,1.1,0.9,1.1,0.9
116,'            ',115.0,1,1,1,1,1.0571893,28.770334,1.1,0.9,1.1,0.9
117,'            ',230.0,1,1,1,1,1.0497663,30.284542,1.1,0.9,1.1,0.9
118,'            ',230.0,1,1,1,1,1.0494362,30.2598,1.1,0.9,1.1,0.9
119,'            ',115.0,1,1,1,1,1.0400327,28.423562,1.1,0.9,1.1,0.9
120,'            ',115.0,1,1,1,1,1.037328,28.582672,1.1,0.9,1.1,0.9
121,'            ',115.0,1,1,1,1,1.0371879,28.5711,1.1,0.9,1.1,0.9
122,'            ',115.0,1,1,1,1,1.0544438,37.118435,1.1,0.9,1.1,0.9
123,'            ',115.0,1,1,1,1,1.0420643,29.84845,1.1,0.9,1.1,0.9
124,'            ',115.0,1,1,1,1,1.0576652,30.069073,1.1,0.9,1.1,0.9
125,'            ',115.0,1,1,1,1,1.0462615,30.366857,1.1,0.9,1.1,0.9
126,'            ',115.0,1,1,1,1,1.051437,28.176538,1.1,0.9,1.1,0.9
127,'            ',115.0,1,1,1,1,1.0526403,27.941421,1.1,0.9,1.1,0.9
128,'            ',115.0,1,1,1,1,1.0526723,27.946711,1.1,0.9,1.1,0.9
129,'            ',115.0,1,1,1,1,1.0557132,32.544547,1.1,0.9,1.1,0.9
130,'            ',230.0,1,1,1,1,1.0410715,32.133521,1.1,0.9,1.1,0.9
131,'            ',115.0,1,1,1,1,1.0608705,30.134336,1.1,0.9,1.1,0.9
132,'            ',230.0,1,1,1,1,1.0419366,32.160444,1.1,0.9,1.1,0.9
133,'            ',230.0,1,1,1,1,1.0338451,24.226513,1.1,0.9,1.1,0.9
134,'            ',115.0,1,1,1,1,1.0603276,25.273466,1.1,0.9,1.1,0.9
135,'            ',230.0,1,1,1,1,1.0337372,24.212983,1.1,0.9,1.1,0.9
136,'            ',115.0,1,1,1,1,1.0564946,25.533208,1.1,0.9,1.1,0.9
137,'            ',115.0,1,1,1,1,1.054014,25.183835,1.1,0.9,1.1,0.9
138,'            ',115.0,1,1,1,1,1.0540903,25.19061,1.1,0.9,1.1,0.9
139,'            ',115.0,1,1,1,1,1.0488643,26.393753,1.1,0.9,1.1,0.9
140,'            ',115.0,1,1,1,1,1.0537891,30.380577,1.1,0.9,1.1,0.9
141,'            ',115.0,1,1,1,1,1.0504861,28.904707,1.1,0.9,1.1,0.9
142,'            ',115.0,1,1,1,1,1.0436841,39.858286,1.1,0.9,1.1,0.9
143,'            ',115.0,1,1,1,1,1.0451098,37.184377,1.1,0.9,1.1,0.9
144,'            ',115.0,1,1,1,1,1.0440005,36.071584,1.1,0.9,1.1,0.9
145,'            ',115.0,1,1,1,1,1.0439589,36.064132,1.1,0.9,1.1,0.9
146,'            ',115.0,1,1,1,1,1.0440429,36.079537,1.1,0.9,1.1,0.9
147,'            ',115.0,1,1,1,1,1.0548937,27.314897,1.1,0.9,1.1,0.9
148,'            ',115.0,1,1,1,1,1.0615005,32.21769,1.1,0.9,1.1,0.9
149,'            ',115.0,1,1,1,1,1.061599,32.225501,1.1,0.9,1.1,0.9
150,'            ',115.0,1,1,1,1,1.0562864,30.115326,1.1,0.9,1.1,0.9
151,'            ',115.0,1,1,1,1,1.0543867,24.937693,1.1,0.9,1.1,0.9
152,'            ',115.0,1,1,1,1,1.0440474,30.545343,1.1,0.9,1.1,0.9
153,'            ',115.0,1,1,1,1,0.99933336,30.818785,1.1,0.9,1.1,0.9
154,'            ',115.0,1,1,1,1,1.0567024,26.782099,1.1,0.9,1.1,0.9
155,'            ',115.0,1,1,1,1,1.0480832,30.79062,1.1,0.9,1.1,0.9
156,'            ',115.0,1,1,1,1,1.0481256,30.794043,1.1,0.9,1.1,0.9
157,'            ',115.0,1,1,1,1,1.0569679,30.0196,1.1,0.9,1.1,0.9
158,'            ',115.0,1,1,1,1,1.0542409,28.049335,1.1,0.9,1.1,0.9
159,'            ',115.0,1,1,1,1,1.0585978,32.249602,1.1,0.9,1.1,0.9
160,'            ',230.0,1,1,1,1,1.0521263,32.026964,1.1,0.9,1.1,0.9
161,'            ',115.0,1,1,1,1,1.0580749,32.004069,1.1,0.9,1.1,0.9
162,'            ',230.0,1,1,1,1,1.0520195,32.015634,1.1,0.9,1.1,0.9
163,'            ',230.0,1,1,1,1,1.0522481,32.03643,1.1,0.9,1.1,0.9
164,'            ',115.0,1,1,1,1,1.0576916,31.999138,1.1,0.9,1.1,0.9
165,'            ',115.0,1,1,1,1,1.0122963,4.1262656,1.1,0.9,1.1,0.9
166,'            ',115.0,1,1,1,1,1.0123579,4.1350643,1.1,0.9,1.1,0.9
167,'            ',115.0,1,1,1,1,1.0122963,4.1262656,1.1,0.9,1.1,0.9
168,'            ',115.0,1,1,1,1,1.0120753,5.4920737,1.1,0.9,1.1,0.9
169,'            ',115.0,1,1,1,1,1.0162695,2.4310911,1.1,0.9,1.1,0.9
170,'            ',115.0,1,1,1,1,1.0133735,2.9018521,1.1,0.9,1.1,0.9
171,'            ',115.0,1,1,1,1,1.0132887,2.8933548,1.1,0.9,1.1,0.9
172,'            ',230.0,1,1,1,1,0.99545526,12.024158,1.1,0.9,1.1,0.9
173,'            ',115.0,1,1,1,1,1.0108818,6.7053091,1.1,0.9,1.1,0.9
174,'            ',230.0,1,1,1,1,0.995,12.019679,1.1,0.9,1.1,0.9
175,'            ',115.0,1,1,1,1,1.0464335,28.606645,1.1,0.9,1.1,0.9
176,'            ',115.0,1,1,1,1,1.0434234,29.975182,1.1,0.9,1.1,0.9
177,'            ',115.0,1,1,1,1,1.0433861,29.9715,1.1,0.9,1.1,0.9
178,'            ',230.0,1,1,1,1,1.0458014,30.983969,1.1,0.9,1.1,0.9
179,'            ',115.0,1,1,1,1,1.0463311,30.797218,1.1,0.9,1.1,0.9
180,'            ',230.0,1,1,1,1,1.0458063,30.98825,1.1,0.9,1.1,0.9
181,'            ',230.0,1,1,1,1,1.0458014,30.983969,1.1,0.9,1.1,0.9
182,'            ',115.0,1,1,1,1,0.99497658,21.303484,1.1,0.9,1.1,0.9
183,'            ',115.0,1,1,1,1,0.995,21.308092,1.1,0.9,1.1,0.9
184,'            ',115.0,1,1,1,1,0.98976357,16.796337,1.1,0.9,1.1,0.9
185,'            ',115.0,1,1,1,1,1.0197831,23.666087,1.1,0.9,1.1,0.9
186,'            ',115.0,1,1,1,1,1.0164982,23.599393,1.1,0.9,1.1,0.9
187,'            ',115.0,1,1,1,1,1.0165652,23.497509,1.1,0.9,1.1,0.9
188,'            ',115.0,1,1,1,1,1.0164725,23.489573,1.1,0.9,1.1,0.9
189,'            ',115.0,1,1,1,1,1.0571055,30.506604,1.1,0.9,1.1,0.9
190,'            ',115.0,1,1,1,1,1.0484264,31.129818,1.1,0.9,1.1,0.9
191,'            ',115.0,1,1,1,1,1.0417079,25.141658,1.1,0.9,1.1,0.9
192,'            ',115.0,1,1,1,1,1.00718,23.335928,1.1,0.9,1.1,0.9
193,'            ',115.0,1,1,1,1,0.995,23.602976,1.1,0.9,1.1,0.9
194,'            ',230.0,1,1,1,1,1.0365,25.232483,1.1,0.9,1.1,0.9
195,'            ',115.0,1,1,1,1,1.0227249,23.911104,1.1,0.9,1.1,0.9
196,'            ',230.0,1,1,1,1,1.0356457,25.376346,1.1,0.9,1.1,0.9
197,'            ',115.0,1,1,1,1,1.0011802,23.125448,1.1,0.9,1.1,0.9
198,'            ',230.0,1,1,1,1,1.0111747,23.967244,1.1,0.9,1.1,0.9
199,'            ',115.0,1,1,1,1,1.0082398,23.360936,1.1,0.9,1.1,0.9
200,'            ',230.0,1,1,1,1,1.0110054,23.952253,1.1,0.9,1.1,0.9
...
0 / END OF BUS DATA BEGIN LOAD DATA
1,'1',1,1,1,11.97,6.752,0.0,0.0,0.0,0.0,1,1,0
2,'1',1,1,1,6.847,3.326,0.0,0.0,0.0,0.0,1,1,0
3,'1',1,1,1,8.82,0.822,0.0,0.0,0.0,0.0,1,1,0
4,'1',1,1,1,5.437,1.307,0.0,0.0,0.0,0.0,1,1,0
6,'1',1,1,1,6.14,2.817,0.0,0.0,0.0,0.0,1,1,0
7,'1',1,1,1,12.274,2.194,0.0,0.0,0.0,0.0,1,1,0
8,'1',1,1,1,15.128,0.967,0.0,0.0,0.0,0.0,1,1,0
9,'1',1,1,1,12.417,5.453,0.0,0.0,0.0,0.0,1,1,0
10,'1',1,1,1,22.346,5.454,0.0,0.0,0.0,0.0,1,1,0
11,'1',1,1,1,6.818,0.399,0.0,0.0,0.0,0.0,1,1,0
14,'1',1,1,1,13.63,4.024,0.0,0.0,0.0,0.0,1,1,0
18,'1',1,1,1,18.913,1.565,0.0,0.0,0.0,0.0,1,1,0
21,'1',1,1,1,35.863,2.879,0.0,0.0,0.0,0.0,1,1,0
24,'1',1,1,1,14.352,5.446,0.0,0.0,0.0,0.0,1,1,0
25,'1',1,1,1,14.728,4.971,0.0,0.0,0.0,0.0,1,1,0
26,'1',1,1,1,5.957,0.845,0.0,0.0,0.0,0.0,1,1,0
30,'1',1,1,1,44.648,14.349,0.0,0.0,0.0,0.0,1,1,0
33,'1',1,1,1,29.204,6.69,0.0,0.0,0.0,0.0,1,1,0
34,'1',1,1,1,11.938,7.372,0.0,0.0,0.0,0.0,1,1,0
36,'1',1,1,1,9.294,2.641,0.0,0.0,0.0,0.0,1,1,0
39,'1',1,1,1,21.078,10.72,0.0,0.0,0.0,0.0,1,1,0
40,'1',1,1,1,14.519,2.683,0.0,0.0,0.0,0.0,1,1,0
41,'1',1,1,1,13.502,4.507,0.0,0.0,0.0,0.0,1,1,0
42,'1',1,1,1,14.519,0.968,0.0,0.0,0.0,0.0,1,1,0
43,'1',1,1,1,16.698,6.517,0.0,0.0,0.0,0.0,1,1,0
44,'1',1,1,1,13.362,3.521,0.0,0.0,0.0,0.0,1,1,0
45,'1',1,1,1,10.542,2.535,0.0,0.0,0.0,0.0,1,1,0
46,'1',1,1,1,15.603,3.5,0.0,0.0,0.0,0.0,1,1,0
47,'1',1,1,1,7.903,1.291,0.0,0.0,0.0,0.0,1,1,0
48,'1',1,1,1,12.406,2.234,0.0,0.0,0.0,0.0,1,1,0
49,'1',1,1,1,1.427,0.5,0.0,0.0,0.0,0.0,1,1,0
51,'1',1,1,1,11.36,3.052,0.0,0.0,0.0,0.0,1,1,0
52,'1',1,1,1,22.72,6.79,0.0,0.0,0.0,0.0,1,1,0
55,'1',1,1,1,21.67,2.706,0.0,0.0,0.0,0.0,1,1,0
57,'1',1,1,1,7.602,1.558,0.0,0.0,0.0,0.0,1,1,0
58,'1',1,1,1,17.72,10.317,0.0,0.0,0.0,0.0,1,1,0
59,'1',1,1,1,16.709,1.878,0.0,0.0,0.0,0.0,1,1,0
60,'1',1,1,1,9.589,5.071,0.0,0.0,0.0,0.0,1,1,0
61,'1',1,1,1,9.589,1.585,0.0,0.0,0.0,0.0,1,1,0
62,'1',1,1,1,23.86,4.222,0.0,0.0,0.0,0.0,1,1,0
66,'1',1,1,1,41.904,7.506,0.0,0.0,0.0,0.0,1,1,0
67,'1',1,1,1,11.871,1.303,0.0,0.0,0.0,0.0,1,1,0
69,'1',1,1,1,12.29,2.828,0.0,0.0,0.0,0.0,1,1,0
70,'1',1,1,1,14.577,4.862,0.0,0.0,0.0,0.0,1,1,0
71,'1',1,1,1,6.911,1.818,0.0,0.0,0.0,0.0,1,1,0
74,'1',1,1,1,13.653,0.598,0.0,0.0,0.0,0.0,1,1,0
76,'1',1,1,1,7.087,1.256,0.0,0.0,0.0,0.0,1,1,0
77,'1',1,1,1,20.745,0.27,0.0,0.0,0.0,0.0,1,1,0
78,'1',1,1,1,3.945,0.678,0.0,0.0,0.0,0.0,1,1,0
82,'1',1,1,1,58.559,5.132,0.0,0.0,0.0,0.0,1,1,0
84,'1',1,1,1,30.709,10.985,0.0,0.0,0.0,0.0,1,1,0
86,'1',1,1,1,3.519,0.851,0.0,0.0,0.0,0.0,1,1,0
88,'1',1,1,1,27.939,21.235,0.0,0.0,0.0,0.0,1,1,0
90,'1',1,1,1,23.78,8.212,0.0,0.0,0.0,0.0,1,1,0
94,'1',1,1,1,41.357,13.583,0.0,0.0,0.0,0.0,1,1,0
96,'1',1,1,1,5.355,2.177,0.0,0.0,0.0,0.0,1,1,0
97,'1',1,1,1,7.935,2.373,0.0,0.0,0.0,0.0,1,1,0
98,'1',1,1,1,17.465,6.565,0.0,0.0,0.0,0.0,1,1,0
100,'1',1,1,1,14.455,3.535,0.0,0.0,0.0,0.0,1,1,0
101,'1',1,1,1,10.35,1.443,0.0,0.0,0.0,0.0,1,1,0
103,'1',1,1,1,19.231,2.857,0.0,0.0,0.0,0.0,1,1,0
104,'1',1,1,1,35.827,3.845,0.0,0.0,0.0,0.0,1,1,0
106,'1',1,1,1,42.962,23.193,0.0,0.0,0.0,0.0,1,1,0
109,'1',1,1,1,54.132,6.853,0.0,0.0,0.0,0.0,1,1,0
111,'1',1,1,1,7.743,2.063,0.0,0.0,0.0,0.0,1,1,0
112,'1',1,1,1,17.907,7.041,0.0,0.0,0.0,0.0,1,1,0
113,'1',1,1,1,56.649,17.213,0.0,0.0,0.0,0.0,1,1,0
114,'1',1,1,1,48.168,17.411,0.0,0.0,0.0,0.0,1,1,0
116,'1',1,1,1,43.337,9.032,0.0,0.0,0.0,0.0,1,1,0
119,'1',1,1,1,12.751,5.993,0.0,0.0,0.0,0.0,1,1,0
121,'1',1,1,1,19.841,8.549,0.0,0.0,0.0,0.0,1,1,0
122,'1',1,1,1,5.849,0.927,0.0,0.0,0.0,0.0,1,1,0
123,'1',1,1,1,4.953,1.46,0.0,0.0,0.0,0.0,1,1,0
124,'1',1,1,1,23.037,5.908,0.0,0.0,0.0,0.0,1,1,0
125,'1',1,1,1,37.262,12.935,0.0,0.0,0.0,0.0,1,1,0
126,'1',1,1,1,18.076,6.517,0.0,0.0,0.0,0.0,1,1,0
127,'1',1,1,1,9.806,1.316,0.0,0.0,0.0,0.0,1,1,0
129,'1',1,1,1,4.914,5.446,0.0,0.0,0.0,0.0,1,1,0
131,'1',1,1,1,39.452,8.628,0.0,0.0,0.0,0.0,1,1,0
135,'1',1,1,1,25.125,4.401,0.0,0.0,0.0,0.0,1,1,0
136,'1',1,1,1,13.442,3.026,0.0,0.0,0.0,0.0,1,1,0
137,'1',1,1,1,11.874,3.831,0.0,0.0,0.0,0.0,1,1,0
139,'1',1,1,1,12.506,3.932,0.0,0.0,0.0,0.0,1,1,0
140,'1',1,1,1,9.05,5.159,0.0,0.0,0.0,0.0,1,1,0
141,'1',1,1,1,9.763,6.882,0.0,0.0,0.0,0.0,1,1,0
142,'1',1,1,1,4.902,3.674,0.0,0.0,0.0,0.0,1,1,0
143,'1',1,1,1,12.415,2.007,0.0,0.0,0.0,0.0,1,1,0
145,'1',1,1,1,13.62,1.139,0.0,0.0,0.0,0.0,1,1,0
147,'1',1,1,1,6.086,0.784,0.0,0.0,0.0,0.0,1,1,0
148,'1',1,1,1,15.691,5.461,0.0,0.0,0.0,0.0,1,1,0
150,'1',1,1,1,3.182,0.273,0.0,0.0,0.0,0.0,1,1,0
151,'1',1,1,1,9.69,2.056,0.0,0.0,0.0,0.0,1,1,0
152,'1',1,1,1,10.536,6.543,0.0,0.0,0.0,0.0,1,1,0
153,'1',1,1,1,6.577,1.544,0.0,0.0,0.0,0.0,1,1,0
154,'1',1,1,1,4.317,1.688,0.0,0.0,0.0,0.0,1,1,0
155,'1',1,1,1,6.577,2.756,0.0,0.0,0.0,0.0,1,1,0
157,'1',1,1,1,6.23,0.988,0.0,0.0,0.0,0.0,1,1,0
158,'1',1,1,1,4.642,1.918,0.0,0.0,0.0,0.0,1,1,0
159,'1',1,1,1,9.837,4.004,0.0,0.0,0.0,0.0,1,1,0
162,'1',1,1,1,19.451,6.002,0.0,0.0,0.0,0.0,1,1,0
164,'1',1,1,1,9.492,2.597,0.0,0.0,0.0,0.0,1,1,0
165,'1',1,1,1,14.518,1.802,0.0,0.0,0.0,0.0,1,1,0
168,'1',1,1,1,14.241,4.848,0.0,0.0,0.0,0.0,1,1,0
169,'1',1,1,1,14.241,4.414,0.0,0.0,0.0,0.0,1,1,0
171,'1',1,1,1,14.426,4.664,0.0,0.0,0.0,0.0,1,1,0
174,'1',1,1,1,14.241,4.775,0.0,0.0,0.0,0.0,1,1,0
175,'1',1,1,1,16.72,4.631,0.0,0.0,0.0,0.0,1,1,0
177,'1',1,1,1,6.522,1.737,0.0,0.0,0.0,0.0,1,1,0
179,'1',1,1,1,16.94,3.463,0.0,0.0,0.0,0.0,1,1,0
182,'1',1,1,1,7.76,0.45,0.0,0.0,0.0,0.0,1,1,0
184,'1',1,1,1,5.165,2.548,0.0,0.0,0.0,0.0,1,1,0
185,'1',1,1,1,10.062,4.41,0.0,0.0,0.0,0.0,1,1,0
186,'1',1,1,1,10.062,5.243,0.0,0.0,0.0,0.0,1,1,0
188,'1',1,1,1,13.971,5.972,0.0,0.0,0.0,0.0,1,1,0
189,'1',1,1,1,10.585,0.749,0.0,0.0,0.0,0.0,1,1,0
190,'1',1,1,1,3.692,0.939,0.0,0.0,0.0,0.0,1,1,0
191,'1',1,1,1,4.134,2.136,0.0,0.0,0.0,0.0,1,1,0
192,'1',1,1,1,12.772,2.321,0.0,0.0,0.0,0.0,1,1,0
193,'1',1,1,1,12.414,3.553,0.0,0.0,0.0,0.0,1,1,0
195,'1',1,1,1,39.392,13.236,0.0,0.0,0.0,0.0,1,1,0
197,'1',1,1,1,13.377,2.832,0.0,0.0,0.0,0.0,1,1,0
200,'1',1,1,1,24.666,9.067,0.0,0.0,0.0,0.0,1,1,0
202,'1',1,1,1,11.843,6.828,0.0,0.0,0.0,0.0,1,1,0
204,'1',1,1,1,18.797,8.029,0.0,0.0,0.0,0.0,1,1,0
205,'1',1,1,1,15.793,1.902,0.0,0.0,0.0,0.0,1,1,0
206,'1',1,1,1,15.686,8.953,0.0,0.0,0.0,0.0,1,1,0
209,'1',1,1,1,48.525,24.234,0.0,0.0,0.0,0.0,1,1,0
211,'1',1,1,1,15.91,6.364,0.0,0.0,0.0,0.0,1,1,0
213,'1',1,1,1,2.638,0.847,0.0,0.0,0.0,0.0,1,1,0
214,'1',1,1,1,2.078,0.304,0.0,0.0,0.0,0.0,1,1,0
215,'1',1,1,1,5.681,2.403,0.0,0.0,0.0,0.0,1,1,0
219,'1',1,1,1,11.847,2.633,0.0,0.0,0.0,0.0,1,1,0
220,'1',1,1,1,1.901,0.382,0.0,0.0,0.0,0.0,1,1,0
221,'1',1,1,1,8.364,1.998,0.0,0.0,0.0,0.0,1,1,0
223,'1',1,1,1,3.585,1.545,0.0,0.0,0.0,0.0,1,1,0
224,'1',1,1,1,2.554,0.716,0.0,0.0,0.0,0.0,1,1,0
225,'1',1,1,1,8.496,1.135,0.0,0.0,0.0,0.0,1,1,0
227,'1',1,1,1,6.259,1.335,0.0,0.0,0.0,0.0,1,1,0
228,'1',1,1,1,13.534,2.999,0.0,0.0,0.0,0.0,1,1,0
229,'1',1,1,1,8.4,2.835,0.0,0.0,0.0,0.0,1,1,0
230,'1',1,1,1,24.054,3.222,0.0,0.0,0.0,0.0,1,1,0
231,'1',1,1,1,9.466,1.585,0.0,0.0,0.0,0.0,1,1,0
232,'1',1,1,1,13.016,3.222,0.0,0.0,0.0,0.0,1,1,0
233,'1',1,1,1,7.582,1.784,0.0,0.0,0.0,0.0,1,1,0
237,'1',1,1,1,19.501,7.01,0.0,0.0,0.0,0.0,1,1,0
239,'1',1,1,1,6.753,2.519,0.0,0.0,0.0,0.0,1,1,0
241,'1',1,1,1,6.103,1.288,0.0,0.0,0.0,0.0,1,1,0
242,'1',1,1,1,2.559,1.328,0.0,0.0,0.0,0.0,1,1,0
243,'1',1,1,1,3.509,4.332,0.0,0.0,0.0,0.0,1,1,0
244,'1',1,1,1,5.203,1.511,0.0,0.0,0.0,0.0,1,1,0
247,'1',1,1,1,16.491,6.143,0.0,0.0,0.0,0.0,1,1,0
249,'1',1,1,1,4.958,0.938,0.0,0.0,0.0,0.0,1,1,0
251,'1',1,1,1,4.32,0.989,0.0,0.0,0.0,0.0,1,1,0
254,'1',1,1,1,31.324,2.876,0.0,0.0,0.0,0.0,1,1,0
256,'1',1,1,1,11.876,0.763,0.0,0.0,0.0,0.0,1,1,0
258,'1',1,1,1,28.402,11.914,0.0,0.0,0.0,0.0,1,1,0
259,'1',1,1,1,14.357,7.782,0.0,0.0,0.0,0.0,1,1,0
260,'1',1,1,1,1.895,1.238,0.0,0.0,0.0,0.0,1,1,0
263,'1',1,1,1,35.446,10.621,0.0,0.0,0.0,0.0,1,1,0
264,'1',1,1,1,17.723,3.485,0.0,0.0,0.0,0.0,1,1,0
265,'1',1,1,1,20.798,3.772,0.0,0.0,0.0,0.0,1,1,0
267,'1',1,1,1,17.723,4.984,0.0,0.0,0.0,0.0,1,1,0
270,'1',1,1,1,16.009,7.267,0.0,0.0,0.0,0.0,1,1,0
271,'1',1,1,1,26.018,6.614,0.0,0.0,0.0,0.0,1,1,0
274,'1',1,1,1,7.154,3.603,0.0,0.0,0.0,0.0,1,1,0
276,'1',1,1,1,3.035,0.575,0.0,0.0,0.0,0.0,1,1,0
277,'1',1,1,1,7.979,0.766,0.0,0.0,0.0,0.0,1,1,0
278,'1',1,1,1,15.135,9.021,0.0,0.0,0.0,0.0,1,1,0
279,'1',1,1,1,4.613,0.529,0.0,0.0,0.0,0.0,1,1,0
280,'1',1,1,1,17.042,5.697,0.0,0.0,0.0,0.0,1,1,0
281,'1',1,1,1,34.084,12.241,0.0,0.0,0.0,0.0,1,1,0
282,'1',1,1,1,9.684,2.482,0.0,0.0,0.0,0.0,1,1,0
283,'1',1,1,1,35.762,10.369,0.0,0.0,0.0,0.0,1,1,0
284,'1',1,1,1,17.88,5.158,0.0,0.0,0.0,0.0,1,1,0
286,'1',1,1,1,34.923,6.904,0.0,0.0,0.0,0.0,1,1,0
290,'1',1,1,1,14.635,0.838,0.0,0.0,0.0,0.0,1,1,0
292,'1',1,1,1,22.38,16.272,0.0,0.0,0.0,0.0,1,1,0
296,'1',1,1,1,41.824,5.124,0.0,0.0,0.0,0.0,1,1,0
298,'1',1,1,1,20.912,14.767,0.0,0.0,0.0,0.0,1,1,0
300,'1',1,1,1,20.912,4.005,0.0,0.0,0.0,0.0,1,1,0
301,'1',1,1,1,5.842,2.468,0.0,0.0,0.0,0.0,1,1,0
303,'1',1,1,1,7.243,1.367,0.0,0.0,0.0,0.0,1,1,0
305,'1',1,1,1,6.627,0.862,0.0,0.0,0.0,0.0,1,1,0
306,'1',1,1,1,3.133,1.669,0.0,0.0,0.0,0.0,1,1,0
307,'1',1,1,1,4.932,0.781,0.0,0.0,0.0,0.0,1,1,0
308,'1',1,1,1,4.913,2.002,0.0,0.0,0.0,0.0,1,1,0
309,'1',1,1,1,17.294,0.833,0.0,0.0,0.0,0.0,1,1,0
313,'1',1,1,1,18.347,10.835,0.0,0.0,0.0,0.0,1,1,0
314,'1',1,1,1,17.294,1.859,0.0,0.0,0.0,0.0,1,1,0
316,'1',1,1,1,17.294,1.886,0.0,0.0,0.0,0.0,1,1,0
317,'1',1,1,1,5.284,1.262,0.0,0.0,0.0,0.0,1,1,0
319,'1',1,1,1,3.503,1.784,0.0,0.0,0.0,0.0,1,1,0
321,'1',1,1,1,5.013,0.854,0.0,0.0,0.0,0.0,1,1,0
322,'1',1,1,1,10.557,3.125,0.0,0.0,0.0,0.0,1,1,0
325,'1',1,1,1,16.189,2.119,0.0,0.0,0.0,0.0,1,1,0
327,'1',1,1,1,11.866,5.102,0.0,0.0,0.0,0.0,1,1,0
329,'1',1,1,1,16.545,4.183,0.0,0.0,0.0,0.0,1,1,0
331,'1',1,1,1,11.164,6.276,0.0,0.0,0.0,0.0,1,1,0
332,'1',1,1,1,6.807,1.539,0.0,0.0,0.0,0.0,1,1,0
336,'1',1,1,1,14.111,6.877,0.0,0.0,0.0,0.0,1,1,0
...
0 / END OF LOAD DATA BEGIN FIXED SHUNT DATA
27,'1',1,0.0,-61.176
194,'1',1,0.0,91.444
371,'1',1,0.0,4.052
383,'1',1,0.0,13.573
473,'1',1,0.0,230.58
509,'1',1,0.0,1.365
567,'1',1,0.0,25.687
590,'1',1,0.0,7.215
759,'1',1,0.0,110.742
834,'1',1,0.0,19.348
842,'1',1,0.0,49.888
898,'1',1,0.0,12.315
1116,'1',1,0.0,152.712
1277,'1',1,0.0,37.546
1296,'1',1,0.0,47.734
1300,'1',1,0.0,18.54
1320,'1',1,0.0,0.11
1343,'1',1,0.0,35.838
1444,'1',1,0.0,10.753
1472,'1',1,0.0,8.77
1502,'1',1,0.0,3.753
1567,'1',1,0.0,17.184
1600,'1',1,0.0,2.889
1737,'1',1,0.0,5.516
1794,'1',1,0.0,80.038
1816,'1',1,0.0,90.161
1822,'1',1,0.0,6.921
1888,'1',1,0.0,199.062
1977,'1',1,0.0,83.106
2001,'1',1,0.0,48.665
2136,'1',1,0.0,7.912
2144,'1',1,0.0,25.318
2189,'1',1,0.0,16.392
2199,'1',1,0.0,83.838
2986,'1',1,0.0,-58.19
3117,'1',1,0.0,-19.578
3209,'1',1,0.0,1.048
3306,'1',1,0.0,13.945
3385,'1',1,0.0,29.484
3401,'1',1,0.0,-18.96
3428,'1',1,0.0,146.433
3447,'1',1,0.0,-293.22
3803,'1',1,0.0,-20.0
3811,'1',1,0.0,-72.579
3892,'1',1,0.0,-25.492
4030,'1',1,0.0,11.979
4565,'1',1,0.0,4.957
4629,'1',1,0.0,27.85
4799,'1',1,0.0,135.044
5065,'1',1,0.0,-56.133
5716,'1',1,0.0,43.436
6039,'1',1,0.0,32.517
6059,'1',1,0.0,-36.039
6249,'1',1,0.0,-13.516
6496,'1',1,0.0,16.216
6565,'1',1,0.0,2.67
6819,'1',1,0.0,5.934
6901,'1',1,0.0,-7.89
7143,'1',1,0.0,19.873
7459,'1',1,0.0,36.044
7654,'1',1,0.0,100.256
7674,'1',1,0.0,45.922
7697,'1',1,0.0,0.311
7853,'1',1,0.0,7.968
8032,'1',1,0.0,49.032
8172,'1',1,0.0,-15.116
8208,'1',1,0.0,13.874
8215,'1',1,0.0,16.983
8233,'1',1,0.0,50.936
8259,'1',1,0.0,6.049
8264,'1',1,0.0,24.902
8882,'1',1,0.0,80.0
9050,'1',1,0.0,-32.33
9441,'1',1,0.0,32.627
9614,'1',1,0.0,-2.85
0 / END OF FIXED SHUNT DATA BEGIN GENERATOR DATA
2275,'1',29.888524,-10.570273,48.61,-10.6,1.0364539,0,95.5,0.0,1.0,0.0,0.0,1.0,1,1.0,95.5,29.823,1,1.0,0,1.0,0,1.0,0,1.0,0,1.0
2276,'1',39.644524,-9.0362893,48.61,-10.6,1.036,0,95.5,0.0,1.0,0.0,0.0,1.0,1,1.0,95.5,39.579,1,1.0,0,1.0,0,1.0,0,1.0,0,1.0
2277,'1',11.850524,-8.4343017,48.61,-10.6,1.036,0,95.5,0.0,1.0,0.0,0.0,1.0,1,1.0,95.5,11.785,1,1.0,0,1.0,0,1.0,0,1.0,0,1.0
2278,'1',11.388524,-10.447249,48.61,-10.6,1.036,0,95.5,0.0,1.0,0.0,0.0,1.0,1,1.0,95.5,11.323,1,1.0,0,1.0,0,1.0,0,1.0,0,1.0
2279,'1',22.620524,-9.7297342,48.61,-10.6,1.036,0,95.5,0.0,1.0,0.0,0.0,1.0,1,1.0,95.5,22.555,1,1.0,0,1.0,0,1.0,0,1.0,0,1.0
2280,'1',19.214524,-8.6758613,48.61,-10.6,1.036,0,95.5,0.0,1.0,0.0,0.0,1.0,1,1.0,95.5,19.149,1,1.0,0,1.0,0,1.0,0,1.0,0,1.0
2285,'1',201.0,-16.151816,42.813,-28.944,1.04,0,201.0,0.0,1.0,0.0,0.0,1.0,1,1.0,201.0,58.433,1,1.0,0,1.0,0,1.0,0,1.0,0,1.0
2289,'1',7.6,-0.92666679,3.542,-0.927,1.0472542,0,7.6,0.0,1.0,0.0,0.0,1.0,1,1.0,7.6,2.682,1,1.0,0,1.0,0,1.0,0,1.0,0,1.0
2289,'2',4.7,-0.57279399,2.19,-0.573,1.0472542,0,4.7,0.0,1.0,0.0,0.0,1.0,1,1.0,4.7,1.507,1,1.0,0,1.0,0,1.0,0,1.0,0,1.0
2290,'1',1.733,-0.21075629,0.808,-0.211,1.0500751,0,1.73,0.0,1.0,0.0,0.0,1.0,1,1.0,1.733,0.79,1,1.0,0,1.0,0,1.0,0,1.0,0,1.0
2290,'2',1.733,-0.21075629,0.808,-0.211,1.0500751,0,1.73,0.0,1.0,0.0,0.0,1.0,1,1.0,1.733,0.337,1,1.0,0,1.0,0,1.0,0,1.0,0,1.0
2291,'1',1.733,-0.21078907,0.808,-0.211,1.0500583,0,1.73,0.0,1.0,0.0,0.0,1.0,1,1.0,1.733,0.583,1,1.0,0,1.0,0,1.0,0,1.0,0,1.0
2291,'2',1.733,-0.21078907,0.808,-0.211,1.0500583,0,1.73,0.0,1.0,0.0,0.0,1.0,1,1.0,1.733,0.849,1,1.0,0,1.0,0,1.0,0,1.0,0,1.0
2292,'1',1.733,-0.21087369,0.808,-0.211,1.0491864,0,1.73,0.0,1.0,0.0,0.0,1.0,1,1.0,1.733,0.316,1,1.0,0,1.0,0,1.0,0,1.0,0,1.0
2293,'1',1.733,-0.2109203,0.808,-0.211,1.0475267,0,1.73,0.0,1.0,0.0,0.0,1.0,1,1.0,1.733,0.545,1,1.0,0,1.0,0,1.0,0,1.0,0,1.0
2294,'1',1.6,-0.19482165,0.746,-0.195,1.0497925,0,1.6,0.0,1.0,0.0,0.0,1.0,1,1.0,1.6,0.427,1,1.0,0,1.0,0,1.0,0,1.0,0,1.0
2294,'2',1.6,-0.19482165,0.746,-0.195,1.0497925,0,1.6,0.0,1.0,0.0,0.0,1.0,1,1.0,1.6,0.429,1,1.0,0,1.0,0,1.0,0,1.0,0,1.0
2295,'1',1.5,-0.18290639,0.699,-0.183,1.0485601,0,1.5,0.0,1.0,0.0,0.0,1.0,1,1.0,1.5,0.455,1,1.0,0,1.0,0,1.0,0,1.0,0,1.0
2295,'2',1.4,-0.17091265,0.652,-0.171,1.0485601,0,1.4,0.0,1.0,0.0,0.0,1.0,1,1.0,1.4,0.161,1,1.0,0,1.0,0,1.0,0,1.0,0,1.0
2296,'1',0.5,-0.060990507,0.233,-0.061,1.0399139,0,0.5,0.0,1.0,0.0,0.0,1.0,1,1.0,0.5,0.238,1,1.0,0,1.0,0,1.0,0,1.0,0,1.0
2302,'1',111.40372,131.79956,149.646,-32.634,1.0355,0,294.0,0.0,1.0,0.0,0.0,1.0,1,1.0,294.0,111.202,1,1.0,0,1.0,0,1.0,0,1.0,0,1.0
2303,'1',87.916717,47.163113,149.646,-32.634,1.031,0,294.0,0.0,1.0,0.0,0.0,1.0,1,1.0,294.0,87.715,1,1.0,0,1.0,0,1.0,0,1.0,0,1.0
2304,'1',73.368717,103.91332,149.646,-32.634,1.0355,0,294.0,0.0,1.0,0.0,0.0,1.0,1,1.0,294.0,73.167,1,1.0,0,1.0,0,1.0,0,1.0,0,1.0
2310,'1',299.915,-59.005,290.038,-75.933,1.0462753,0,622.4,0.0,1.0,0.0,0.0,1.0,0,1.0,622.4,274.004,1,1.0,0,1.0,0,1.0,0,1.0,0,1.0
2315,'1',50.418188,47.256401,57.262,-12.488,1.0135,0,112.5,0.0,1.0,0.0,0.0,1.0,1,1.0,112.5,50.341,1,1.0,0,1.0,0,1.0,0,1.0,0,1.0
2316,'1',36.600188,45.630454,57.262,-12.488,1.0135,0,112.5,0.0,1.0,0.0,0.0,1.0,1,1.0,112.5,36.523,1,1.0,0,1.0,0,1.0,0,1.0,0,1.0
2317,'1',47.552188,26.377742,57.262,-12.488,1.0135,0,112.5,0.0,1.0,0.0,0.0,1.0,1,1.0,112.5,47.475,1,1.0,0,1.0,0,1.0,0,1.0,0,1.0
2318,'1',15.171188,44.897152,57.262,-12.488,1.0135,0,112.5,0.0,1.0,0.0,0.0,1.0,1,1.0,112.5,15.094,1,1.0,0,1.0,0,1.0,0,1.0,0,1.0
2323,'1',161.0,-9.6224856,34.293,-23.184,1.04,0,161.0,0.0,1.0,0.0,0.0,1.0,1,1.0,161.0,25.175,1,1.0,0,1.0,0,1.0,0,1.0,0,1.0
2327,'1',52.023035,-4.9146181,21.556,-14.573,1.04,0,101.2,0.0,1.0,0.0,0.0,1.0,1,1.0,101.2,39.642,1,1.0,0,1.0,0,1.0,0,1.0,0,1.0
2332,'1',95.679985,-2.7006814,93.317,-20.35,1.0625,0,183.33,0.0,1.0,0.0,0.0,1.0,1,1.0,183.333,54.251,1,1.0,0,1.0,0,1.0,0,1.0,0,1.0
2333,'1',132.44358,11.697838,93.317,-20.35,1.0625,0,183.33,0.0,1.0,0.0,0.0,1.0,1,1.0,183.333,85.229,1,1.0,0,1.0,0,1.0,0,1.0,0,1.0
2334,'1',124.44638,-2.9205437,93.317,-20.35,1.0625,0,183.33,0.0,1.0,0.0,0.0,1.0,1,1.0,183.333,69.843,1,1.0,0,1.0,0,1.0,0,1.0,0,1.0
2340,'1',229.392,1.64,336.452,-88.084,1.0396854,0,722.0,0.0,1.0,0.0,0.0,1.0,0,1.0,722.0,187.779,1,1.0,0,1.0,0,1.0,0,1.0,0,1.0
2341,'1',310.886,-0.62,336.452,-88.084,1.0396854,0,722.0,0.0,1.0,0.0,0.0,1.0,0,1.0,722.0,295.436,1,1.0,0,1.0,0,1.0,0,1.0,0,1.0
2346,'1',13.740338,-4.3019624,45.505,-9.923,1.036,0,89.4,0.0,1.0,0.0,0.0,1.0,1,1.0,89.4,13.679,1,1.0,0,1.0,0,1.0,0,1.0,0,1.0
2347,'1',20.990338,-5.8734729,45.505,-9.923,1.036,0,89.4,0.0,1.0,0.0,0.0,1.0,1,1.0,89.4,20.929,1,1.0,0,1.0,0,1.0,0,1.0,0,1.0
2348,'1',18.416338,-3.9581107,45.505,-9.923,1.036,0,89.4,0.0,1.0,0.0,0.0,1.0,1,1.0,89.4,18.355,1,1.0,0,1.0,0,1.0,0,1.0,0,1.0
2349,'1',36.939338,-3.9731542,45.505,-9.923,1.036,0,89.4,0.0,1.0,0.0,0.0,1.0,1,1.0,89.4,36.878,1,1.0,0,1.0,0,1.0,0,1.0,0,1.0
2350,'1',25.635338,-5.8741181,45.505,-9.923,1.036,0,89.4,0.0,1.0,0.0,0.0,1.0,1,1.0,89.4,25.574,1,1.0,0,1.0,0,1.0,0,1.0,0,1.0
2351,'1',41.346338,-4.2417425,45.505,-9.923,1.036,0,89.4,0.0,1.0,0.0,0.0,1.0,1,1.0,89.4,41.285,1,1.0,0,1.0,0,1.0,0,1.0,0,1.0
2352,'1',0.11429559,-0.021650687,0.221,-0.048,1.04,0,0.43,0.0,1.0,0.0,0.0,1.0,1,1.0,0.433,0.114,1,1.0,0,1.0,0,1.0,0,1.0,0,1.0
2353,'1',0.17429559,-0.030957361,0.221,-0.048,1.036,0,0.43,0.0,1.0,0.0,0.0,1.0,1,1.0,0.433,0.174,1,1.0,0,1.0,0,1.0,0,1.0,0,1.0
2353,'2',0.21129559,-0.030957361,0.221,-0.048,1.036,0,0.43,0.0,1.0,0.0,0.0,1.0,1,1.0,0.433,0.211,1,1.0,0,1.0,0,1.0,0,1.0,0,1.0
2358,'1',2.36482,-1.4472008,8.029,-1.751,1.04,0,15.77,0.0,1.0,0.0,0.0,1.0,1,1.0,15.775,2.354,1,1.0,0,1.0,0,1.0,0,1.0,0,1.0
2358,'2',7.88782,-1.4472008,8.029,-1.751,1.04,0,15.77,0.0,1.0,0.0,0.0,1.0,1,1.0,15.775,7.877,1,1.0,0,1.0,0,1.0,0,1.0,0,1.0
2359,'1',5.36382,-1.7392215,8.029,-1.751,1.0426189,0,15.77,0.0,1.0,0.0,0.0,1.0,1,1.0,15.775,5.353,1,1.0,0,1.0,0,1.0,0,1.0,0,1.0
2360,'1',4.74582,4.8255896,8.029,-1.751,1.045,0,15.77,0.0,1.0,0.0,0.0,1.0,1,1.0,15.775,4.735,1,1.0,0,1.0,0,1.0,0,1.0,0,1.0
2364,'1',55.68898,-19.468664,90.856,-19.814,1.0405951,0,178.5,0.0,1.0,0.0,0.0,1.0,1,1.0,178.5,21.473,1,1.0,0,1.0,0,1.0,0,1.0,0,1.0
2365,'1',90.926071,-19.61789,90.856,-19.814,1.040091,0,178.5,0.0,1.0,0.0,0.0,1.0,1,1.0,178.5,49.538,1,1.0,0,1.0,0,1.0,0,1.0,0,1.0
2366,'1',57.013471,-19.271008,90.856,-19.814,1.036,0,178.5,0.0,1.0,0.0,0.0,1.0,1,1.0,178.5,56.891,1,1.0,0,1.0,0,1.0,0,1.0,0,1.0
2371,'1',39.337,-14.673113,123.891,-27.017,1.0495,0,243.4,0.0,1.0,0.0,0.0,1.0,1,1.0,243.4,39.17,1,1.0,0,1.0,0,1.0,0,1.0,0,1.0
2372,'1',78.893,-18.843454,123.891,-27.017,1.0495,0,243.4,0.0,1.0,0.0,0.0,1.0,1,1.0,243.4,78.726,1,1.0,0,1.0,0,1.0,0,1.0,0,1.0
2373,'1',113.043,-12.94879,123.891,-27.017,1.0495,0,243.4,0.0,1.0,0.0,0.0,1.0,1,1.0,243.4,112.876,1,1.0,0,1.0,0,1.0,0,1.0,0,1.0
2376,'1',0.66136721,-0.383,1.756,-0.383,1.0442354,0,3.45,0.0,1.0,0.0,0.0,1.0,1,1.0,3.45,0.659,1,1.0,0,1.0,0,1.0,0,1.0,0,1.0
2376,'2',1.4883672,-0.383,1.756,-0.383,1.0442354,0,3.45,0.0,1.0,0.0,0.0,1.0,1,1.0,3.45,1.486,1,1.0,0,1.0,0,1.0,0,1.0,0,1.0
2376,'3',1.5774307,-0.555,2.545,-0.555,1.0442354,0,5.0,0.0,1.0,0.0,0.0,1.0,1,1.0,5.0,1.574,1,1.0,0,1.0,0,1.0,0,1.0,0,1.0
2376,'4',9.2199334,-5.328,24.432,-5.328,1.0442354,0,48.0,0.0,1.0,0.0,0.0,1.0,1,1.0,48.0,9.187,1,1.0,0,1.0,0,1.0,0,1.0,0,1.0
2379,'1',39.6,39.33071,148.609,0.0,1.04,0,39.6,0.0,1.0,0.0,0.0,1.0,1,1.0,39.6,13.389,1,1.0,0,1.0,0,1.0,0,1.0,0,1.0
2384,'1',29.700195,50.017765,66.17,-14.43,1.009,0,130.0,0.0,1.0,0.0,0.0,1.0,1,1.0,130.0,29.611,1,1.0,0,1.0,0,1.0,0,1.0,0,1.0
2385,'1',35.864195,53.829854,66.17,-14.43,1.009,0,130.0,0.0,1.0,0.0,0.0,1.0,1,1.0,130.0,35.775,1,1.0,0,1.0,0,1.0,0,1.0,0,1.0
2390,'1',40.069965,-17.235089,79.353,-17.305,1.0655043,0,155.9,0.0,1.0,0.0,0.0,1.0,1,1.0,155.9,39.963,1,1.0,0,1.0,0,1.0,0,1.0,0,1.0
2391,'1',49.995965,-17.256576,79.353,-17.305,1.062846,0,155.9,0.0,1.0,0.0,0.0,1.0,1,1.0,155.9,49.889,1,1.0,0,1.0,0,1.0,0,1.0,0,1.0
2392,'1',21.136965,-17.253203,79.353,-17.305,1.0632028,0,155.9,0.0,1.0,0.0,0.0,1.0,1,1.0,155.9,21.03,1,1.0,0,1.0,0,1.0,0,1.0,0,1.0
2397,'1',109.618,-16.904,335.986,-87.962,1.0434915,0,721.0,0.0,1.0,0.0,0.0,1.0,0,1.0,721.0,77.142,1,1.0,0,1.0,0,1.0,0,1.0,0,1.0
2401,'1',3.2,1.229,1.229,-0.157,1.039,0,3.2,0.0,1.0,0.0,0.0,1.0,1,1.0,3.2,0.842,1,1.0,0,1.0,0,1.0,0,1.0,0,1.0
2401,'2',3.2,1.229,1.229,-0.157,1.039,0,3.2,0.0,1.0,0.0,0.0,1.0,1,1.0,3.2,1.397,1,1.0,0,1.0,0,1.0,0,1.0,0,1.0
2401,'3',3.2,1.229,1.229,-0.157,1.039,0,3.2,0.0,1.0,0.0,0.0,1.0,1,1.0,3.2,1.238,1,1.0,0,1.0,0,1.0,0,1.0,0,1.0
2401,'4',33.0,12.672,12.672,-1.617,1.039,0,33.0,0.0,1.0,0.0,0.0,1.0,1,1.0,33.0,7.526,1,1.0,0,1.0,0,1.0,0,1.0,0,1.0
2401,'5',33.0,12.672,12.672,-1.617,1.039,0,33.0,0.0,1.0,0.0,0.0,1.0,1,1.0,33.0,7.945,1,1.0,0,1.0,0,1.0,0,1.0,0,1.0
2404,'1',76.25,-10.695478,16.241,-10.98,1.0455,0,76.25,0.0,1.0,0.0,0.0,1.0,1,1.0,76.25,15.232,1,1.0,0,1.0,0,1.0,0,1.0,0,1.0
2404,'2',76.25,-10.695478,16.241,-10.98,1.0455,0,76.25,0.0,1.0,0.0,0.0,1.0,1,1.0,76.25,22.085,1,1.0,0,1.0,0,1.0,0,1.0,0,1.0
2409,'1',3.6792111,0.65160812,14.252,-3.108,1.033,0,28.0,0.0,1.0,0.0,0.0,1.0,1,1.0,28.0,3.66,1,1.0,0,1.0,0,1.0,0,1.0,0,1.0
2409,'2',4.2472111,0.65160812,14.252,-3.108,1.033,0,28.0,0.0,1.0,0.0,0.0,1.0,1,1.0,28.0,4.228,1,1.0,0,1.0,0,1.0,0,1.0,0,1.0
2410,'1',8.5392111,-3.0850134,14.252,-3.108,1.0469701,0,28.0,0.0,1.0,0.0,0.0,1.0,1,1.0,28.0,8.52,1,1.0,0,1.0,0,1.0,0,1.0,0,1.0
2411,'1',9.6292111,-2.0845491,14.252,-3.108,1.04,0,28.0,0.0,1.0,0.0,0.0,1.0,1,1.0,28.0,9.61,1,1.0,0,1.0,0,1.0,0,1.0,0,1.0
2411,'2',3.7122111,-2.0845491,14.252,-3.108,1.04,0,28.0,0.0,1.0,0.0,0.0,1.0,1,1.0,28.0,3.693,1,1.0,0,1.0,0,1.0,0,1.0,0,1.0
2412,'1',4.0882111,-3.0969643,14.252,-3.108,1.0433066,0,28.0,0.0,1.0,0.0,0.0,1.0,1,1.0,28.0,4.069,1,1.0,0,1.0,0,1.0,0,1.0,0,1.0
2416,'1',25.215813,-3.141,14.405,-3.141,1.0408909,0,28.3,0.0,1.0,0.0,0.0,1.0,1,1.0,28.3,12.782,1,1.0,0,1.0,0,1.0,0,1.0,0,1.0
2416,'2',24.284013,-3.141,14.405,-3.141,1.0408909,0,28.3,0.0,1.0,0.0,0.0,1.0,1,1.0,28.3,8.123,1,1.0,0,1.0,0,1.0,0,1.0,0,1.0
2417,'1',25.464213,-3.141,14.405,-3.141,1.04,0,28.3,0.0,1.0,0.0,0.0,1.0,1,1.0,28.3,14.024,1,1.0,0,1.0,0,1.0,0,1.0,0,1.0
2417,'2',23.327813,-3.141,14.405,-3.141,1.04,0,28.3,0.0,1.0,0.0,0.0,1.0,1,1.0,28.3,3.342,1,1.0,0,1.0,0,1.0,0,1.0,0,1.0
2418,'1',24.588613,-3.141,14.405,-3.141,1.0406597,0,28.3,0.0,1.0,0.0,0.0,1.0,1,1.0,28.3,9.646,1,1.0,0,1.0,0,1.0,0,1.0,0,1.0
2418,'2',24.105413,-3.141,14.405,-3.141,1.0406597,0,28.3,0.0,1.0,0.0,0.0,1.0,1,1.0,28.3,7.23,1,1.0,0,1.0,0,1.0,0,1.0,0,1.0
2423,'1',8.7798528,31.048546,31.049,-6.771,1.0239245,0,61.0,0.0,1.0,0.0,0.0,1.0,1,1.0,61.0,8.738,1,1.0,0,1.0,0,1.0,0,1.0,0,1.0
2424,'1',4.1824667,-2.664,12.216,-2.664,1.0401401,0,24.0,0.0,1.0,0.0,0.0,1.0,1,1.0,24.0,4.166,1,1.0,0,1.0,0,1.0,0,1.0,0,1.0
2428,'1',112.36462,86.677845,126.571,-27.602,1.065,0,248.67,0.0,1.0,0.0,0.0,1.0,1,1.0,248.667,112.194,1,1.0,0,1.0,0,1.0,0,1.0,0,1.0
2429,'1',89.142615,50.161327,126.571,-27.602,1.065,0,248.67,0.0,1.0,0.0,0.0,1.0,1,1.0,248.667,88.972,1,1.0,0,1.0,0,1.0,0,1.0,0,1.0
2430,'1',83.590615,63.921131,126.571,-27.602,1.065,0,248.67,0.0,1.0,0.0,0.0,1.0,1,1.0,248.667,83.42,1,1.0,0,1.0,0,1.0,0,1.0,0,1.0
2433,'1',12.386338,1.9327322,45.505,-9.923,1.044,0,89.4,0.0,1.0,0.0,0.0,1.0,1,1.0,89.4,12.325,1,1.0,0,1.0,0,1.0,0,1.0,0,1.0
2433,'2',15.325338,1.9327322,45.505,-9.923,1.044,0,89.4,0.0,1.0,0.0,0.0,1.0,1,1.0,89.4,15.264,1,1.0,0,1.0,0,1.0,0,1.0,0,1.0
2433,'3',23.981338,1.9327322,45.505,-9.923,1.044,0,89.4,0.0,1.0,0.0,0.0,1.0,1,1.0,89.4,23.92,1,1.0,0,1.0,0,1.0,0,1.0,0,1.0
2433,'4',36.381338,1.9327322,45.505,-9.923,1.044,0,89.4,0.0,1.0,0.0,0.0,1.0,1,1.0,89.4,36.32,1,1.0,0,1.0,0,1.0,0,1.0,0,1.0
2433,'5',10.791338,1.9327322,45.505,-9.923,1.044,0,89.4,0.0,1.0,0.0,0.0,1.0,1,1.0,89.4,10.73,1,1.0,0,1.0,0,1.0,0,1.0,0,1.0
2441,'1',53.441493,85.417772,85.682,-18.685,1.0212094,0,168.33,0.0,1.0,0.0,0.0,1.0,1,1.0,168.333,53.326,1,1.0,0,1.0,0,1.0,0,1.0,0,1.0
2442,'1',48.780493,85.545738,85.682,-18.685,1.0229443,0,168.33,0.0,1.0,0.0,0.0,1.0,1,1.0,168.333,48.665,1,1.0,0,1.0,0,1.0,0,1.0,0,1.0
2443,'1',75.524493,85.581034,85.682,-18.685,1.02309,0,168.33,0.0,1.0,0.0,0.0,1.0,1,1.0,168.333,75.409,1,1.0,0,1.0,0,1.0,0,1.0,0,1.0
2449,'1',134.98474,169.088,169.088,-35.226,1.0276229,0,317.35,0.0,1.0,0.0,0.0,1.0,1,1.0,317.35,134.767,1,1.0,0,1.0,0,1.0,0,1.0,0,1.0
2450,'1',113.93674,100.634,100.634,-35.226,1.0167053,0,317.35,0.0,1.0,0.0,0.0,1.0,1,1.0,317.35,113.719,1,1.0,0,1.0,0,1.0,0,1.0,0,1.0
2455,'1',53.29843,13.53335,67.086,-14.63,1.032,0,131.8,0.0,1.0,0.0,0.0,1.0,1,1.0,131.8,53.208,1,1.0,0,1.0,0,1.0,0,1.0,0,1.0
2456,'1',59.31243,14.060224,67.086,-14.63,1.0365,0,131.8,0.0,1.0,0.0,0.0,1.0,1,1.0,131.8,59.222,1,1.0,0,1.0,0,1.0,0,1.0,0,1.0
2459,'1',7.4290945,-2.442,11.198,-2.442,1.0483565,0,22.0,0.0,1.0,0.0,0.0,1.0,1,1.0,22.0,7.414,1,1.0,0,1.0,0,1.0,0,1.0,0,1.0
2459,'2',4.5190945,-2.442,11.198,-2.442,1.0483565,0,22.0,0.0,1.0,0.0,0.0,1.0,1,1.0,22.0,4.504,1,1.0,0,1.0,0,1.0,0,1.0,0,1.0
2459,'3',9.9700945,-2.442,11.198,-2.442,1.0483565,0,22.0,0.0,1.0,0.0,0.0,1.0,1,1.0,22.0,9.955,1,1.0,0,1.0,0,1.0,0,1.0,0,1.0
2464,'1',27.498333,14.823122,49.212,-10.732,1.054,0,96.68,0.0,1.0,0.0,0.0,1.0,1,1.0,96.683,27.432,1,1.0,0,1.0,0,1.0,0,1.0,0,1.0
2465,'1',28.273333,10.785662,49.212,-10.732,1.054,0,96.68,0.0,1.0,0.0,0.0,1.0,1,1.0,96.683,28.207,1,1.0,0,1.0,0,1.0,0,1.0,0,1.0
2466,'1',30.863333,9.4139165,49.212,-10.732,1.054,0,96.68,0.0,1.0,0.0,0.0,1.0,1,1.0,96.683,30.797,1,1.0,0,1.0,0,1.0,0,1.0,0,1.0
2467,'1',30.410333,11.198736,49.212,-10.732,1.054,0,96.68,0.0,1.0,0.0,0.0,1.0,1,1.0,96.683,30.344,1,1.0,0,1.0,0,1.0,0,1.0,0,1.0
2468,'1',33.003333,20.844308,49.212,-10.732,1.054,0,96.68,0.0,1.0,0.0,0.0,1.0,1,1.0,96.683,32.937,1,1.0,0,1.0,0,1.0,0,1.0,0,1.0
2469,'1',43.138333,14.697932,49.212,-10.732,1.054,0,96.68,0.0,1.0,0.0,0.0,1.0,1,1.0,96.683,43.072,1,1.0,0,1.0,0,1.0,0,1.0,0,1.0
2473,'1',12.058247,28.194589,38.76,-8.453,1.045,0,76.15,0.0,1.0,0.0,0.0,1.0,1,1.0,76.15,12.006,1,1.0,0,1.0,0,1.0,0,1.0,0,1.0
2473,'2',22.343247,28.194589,38.76,-8.453,1.045,0,76.15,0.0,1.0,0.0,0.0,1.0,1,1.0,76.15,22.291,1,1.0,0,1.0,0,1.0,0,1.0,0,1.0
2473,'3',36.076247,28.194589,38.76,-8.453,1.045,0,76.15,0.0,1.0,0.0,0.0,1.0,1,1.0,76.15,36.024,1,1.0,0,1.0,0,1.0,0,1.0,0,1.0
2473,'4',10.394247,28.194589,38.76,-8.453,1.045,0,76.15,0.0,1.0,0.0,0.0,1.0,1,1.0,76.15,10.342,1,1.0,0,1.0,0,1.0,0,1.0,0,1.0
2477,'1',10.732072,7.0498943,19.342,-4.218,1.0425,0,38.0,0.0,1.0,0.0,0.0,1.0,1,1.0,38.0,10.706,1,1.0,0,1.0,0,1.0,0,1.0,0,1.0
2481,'1',82.146376,-1.0869179,36.253,-24.509,1.045,0,170.2,0.0,1.0,0.0,0.0,1.0,1,1.0,170.2,59.987,1,1.0,0,1.0,0,1.0,0,1.0,0,1.0
2486,'1',101.16951,78.980616,114.627,-24.997,1.0675,0,225.2,0.0,1.0,0.0,0.0,1.0,1,1.0,225.2,101.015,1,1.0,0,1.0,0,1.0,0,1.0,0,1.0
2487,'1',67.919512,111.44127,114.627,-24.997,1.0675,0,225.2,0.0,1.0,0.0,0.0,1.0,1,1.0,225.2,67.765,1,1.0,0,1.0,0,1.0,0,1.0,0,1.0
2488,'1',80.318512,104.59646,114.627,-24.997,1.0675,0,225.2,0.0,1.0,0.0,0.0,1.0,1,1.0,225.2,80.164,1,1.0,0,1.0,0,1.0,0,1.0,0,1.0
2493,'1',150.0,13.018645,31.95,-21.6,1.0445,0,150.0,0.0,1.0,0.0,0.0,1.0,1,1.0,150.0,53.398,1,1.0,0,1.0,0,1.0,0,1.0,0,1.0
2499,'1',180.0,-25.819473,38.34,-25.92,1.0428449,0,180.0,0.0,1.0,0.0,0.0,1.0,1,1.0,180.0,54.851,1,1.0,0,1.0,0,1.0,0,1.0,0,1.0
2500,'1',9.0,1.917,1.917,-1.296,1.0358265,0,9.0,0.0,1.0,0.0,0.0,1.0,1,1.0,9.0,2.266,1,1.0,0,1.0,0,1.0,0,1.0,0,1.0
2506,'1',78.695738,7.6010986,82.153,-17.915,1.047,0,161.4,0.0,1.0,0.0,0.0,1.0,1,1.0,161.4,78.585,1,1.0,0,1.0,0,1.0,0,1.0,0,1.0
2507,'1',52.515738,5.132738,82.153,-17.915,1.047,0,161.4,0.0,1.0,0.0,0.0,1.0,1,1.0,161.4,52.405,1,1.0,0,1.0,0,1.0,0,1.0,0,1.0
2508,'1',51.935738,28.645216,82.153,-17.915,1.0515,0,161.4,0.0,1.0,0.0,0.0,1.0,1,1.0,161.4,51.825,1,1.0,0,1.0,0,1.0,0,1.0,0,1.0
2509,'1',60.849738,6.8422279,82.153,-17.915,1.047,0,161.4,0.0,1.0,0.0,0.0,1.0,1,1.0,161.4,60.739,1,1.0,0,1.0,0,1.0,0,1.0,0,1.0
2510,'1',74.350738,5.3233975,82.153,-17.915,1.047,0,161.4,0.0,1.0,0.0,0.0,1.0,1,1.0,161.4,74.24,1,1.0,0,1.0,0,1.0,0,1.0,0,1.0
2515,'1',100.5825,17.694159,104.973,-22.892,1.054,0,206.23,0.0,1.0,0.0,0.0,1.0,1,1.0,206.233,100.441,1,1.0,0,1.0,0,1.0,0,1.0,0,1.0
2516,'1',91.016497,17.491865,104.973,-22.892,1.054,0,206.23,0.0,1.0,0.0,0.0,1.0,1,1.0,206.233,90.875,1,1.0,0,1.0,0,1.0,0,1.0,0,1.0
2517,'1',96.533497,22.382848,104.973,-22.892,1.054,0,206.23,0.0,1.0,0.0,0.0,1.0,1,1.0,206.233,96.392,1,1.0,0,1.0,0,1.0,0,1.0,0,1.0
2521,'1',67.6,4.9760019,14.399,-9.734,1.054,0,67.6,0.0,1.0,0.0,0.0,1.0,1,1.0,67.6,10.419,1,1.0,0,1.0,0,1.0,0,1.0,0,1.0
2526,'1',50.403347,-0.7027515,78.895,-17.205,1.045,0,155.0,0.0,1.0,0.0,0.0,1.0,1,1.0,155.0,50.297,1,1.0,0,1.0,0,1.0,0,1.0,0,1.0
2527,'1',20.323347,-0.94266836,78.895,-17.205,1.045,0,155.0,0.0,1.0,0.0,0.0,1.0,1,1.0,155.0,20.217,1,1.0,0,1.0,0,1.0,0,1.0,0,1.0
2531,'1',30.0,0.0,0.0,0.0,1.055454,0,30.0,0.0,1.0,0.0,0.0,1.0,1,1.0,30.0,3.39,1,1.0,0,1.0,0,1.0,0,1.0,0,1.0
2531,'2',1.4,0.0,0.0,0.0,1.055454,0,1.4,0.0,1.0,0.0,0.0,1.0,1,1.0,1.4,0.549,1,1.0,0,1.0,0,1.0,0,1.0,0,1.0
2536,'1',24.776481,20.789555,30.031,-6.549,1.065,0,59.0,0.0,1.0,0.0,0.0,1.0,1,1.0,59.0,24.736,1,1.0,0,1.0,0,1.0,0,1.0,0,1.0
2537,'1',12.721481,12.494249,30.031,-6.549,1.065,0,59.0,0.0,1.0,0.0,0.0,1.0,1,1.0,59.0,12.681,1,1.0,0,1.0,0,1.0,0,1.0,0,1.0
2538,'1',17.783481,12.61179,30.031,-6.549,1.065,0,59.0,0.0,1.0,0.0,0.0,1.0,1,1.0,59.0,17.743,1,1.0,0,1.0,0,1.0,0,1.0,0,1.0
2539,'1',26.551481,17.943807,30.031,-6.549,1.065,0,59.0,0.0,1.0,0.0,0.0,1.0,1,1.0,59.0,26.511,1,1.0,0,1.0,0,1.0,0,1.0,0,1.0
2544,'1',67.194795,-20.552329,81.364,-21.301,1.04,0,174.6,0.0,1.0,0.0,0.0,1.0,1,1.0,174.6,67.075,1,1.0,0,1.0,0,1.0,0,1.0,0,1.0
2545,'1',42.378795,-21.301,81.364,-21.301,1.0401145,0,174.6,0.0,1.0,0.0,0.0,1.0,1,1.0,174.6,42.259,1,1.0,0,1.0,0,1.0,0,1.0,0,1.0
2548,'1',6.4051425,-2.4688712,14.201,-3.097,1.050305,0,27.9,0.0,1.0,0.0,0.0,1.0,1,1.0,27.9,6.386,1,1.0,0,1.0,0,1.0,0,1.0,0,1.0
2549,'1',3.5201425,-2.9045291,14.201,-3.097,1.0532944,0,27.9,0.0,1.0,0.0,0.0,1.0,1,1.0,27.9,3.501,1,1.0,0,1.0,0,1.0,0,1.0,0,1.0
2549,'2',13.193143,-2.9045291,14.201,-3.097,1.0532944,0,27.9,0.0,1.0,0.0,0.0,1.0,1,1.0,27.9,13.174,1,1.0,0,1.0,0,1.0,0,1.0,0,1.0
2549,'3',9.5181425,-2.9045291,14.201,-3.097,1.0532944,0,27.9,0.0,1.0,0.0,0.0,1.0,1,1.0,27.9,9.499,1,1.0,0,1.0,0,1.0,0,1.0,0,1.0
2549,'4',11.540143,-2.9045291,14.201,-3.097,1.0532944,0,27.9,0.0,1.0,0.0,0.0,1.0,1,1.0,27.9,11.521,1,1.0,0,1.0,0,1.0,0,1.0,0,1.0
2549,'5',10.530143,-2.9045291,14.201,-3.097,1.0532944,0,27.9,0.0,1.0,0.0,0.0,1.0,1,1.0,27.9,10.511,1,1.0,0,1.0,0,1.0,0,1.0,0,1.0
2554,'1',46.817498,13.814538,67.137,-14.641,1.0585,0,131.9,0.0,1.0,0.0,0.0,1.0,1,1.0,131.9,46.727,1,1.0,0,1.0,0,1.0,0,1.0,0,1.0
2555,'1',65.443498,22.419274,67.137,-14.641,1.0585,0,131.9,0.0,1.0,0.0,0.0,1.0,1,1.0,131.9,65.353,1,1.0,0,1.0,0,1.0,0,1.0,0,1.0
2556,'1',27.888498,16.275336,67.137,-14.641,1.0585,0,131.9,0.0,1.0,0.0,0.0,1.0,1,1.0,131.9,27.798,1,1.0,0,1.0,0,1.0,0,1.0,0,1.0
2557,'1',32.850498,16.837642,67.137,-14.641,1.0585,0,131.9,0.0,1.0,0.0,0.0,1.0,1,1.0,131.9,32.76,1,1.0,0,1.0,0,1.0,0,1.0,0,1.0
2563,'1',1081.3832,419.8085,447.12,-99.63,1.0129524,0,1215.0,0.0,1.0,0.0,0.0,1.0,1,1.0,1215.0,542.749,1,1.0,0,1.0,0,1.0,0,1.0,0,1.0
2564,'1',1012.2042,413.77163,447.12,-99.63,1.0104198,0,1215.0,0.0,1.0,0.0,0.0,1.0,1,1.0,1215.0,196.854,1,1.0,0,1.0,0,1.0,0,1.0,0,1.0
2567,'1',24.6724,-7.992,36.648,-7.992,1.0381924,0,72.0,0.0,1.0,0.0,0.0,1.0,1,1.0,72.0,24.623,1,1.0,0,1.0,0,1.0,0,1.0,0,1.0
2567,'2',32.5454,-7.992,36.648,-7.992,1.0381924,0,72.0,0.0,1.0,0.0,0.0,1.0,1,1.0,72.0,32.496,1,1.0,0,1.0,0,1.0,0,1.0,0,1.0
2567,'3',8.6434,-7.992,36.648,-7.992,1.0381924,0,72.0,0.0,1.0,0.0,0.0,1.0,1,1.0,72.0,8.594,1,1.0,0,1.0,0,1.0,0,1.0,0,1.0
2567,'4',20.9554,-7.992,36.648,-7.992,1.0381924,0,72.0,0.0,1.0,0.0,0.0,1.0,1,1.0,72.0,20.906,1,1.0,0,1.0,0,1.0,0,1.0,0,1.0
2567,'5',31.0354,-7.992,36.648,-7.992,1.0381924,0,72.0,0.0,1.0,0.0,0.0,1.0,1,1.0,72.0,30.986,1,1.0,0,1.0,0,1.0,0,1.0,0,1.0
2567,'6',20.5924,-7.992,36.648,-7.992,1.0381924,0,72.0,0.0,1.0,0.0,0.0,1.0,1,1.0,72.0,20.543,1,1.0,0,1.0,0,1.0,0,1.0,0,1.0
2573,'1',260.07416,-22.588885,59.214,-40.032,1.036,0,278.0,0.0,1.0,0.0,0.0,1.0,1,1.0,278.0,124.493,1,1.0,0,1.0,0,1.0,0,1.0,0,1.0
2578,'1',150.0,-17.259826,31.95,-21.6,1.04,0,150.0,0.0,1.0,0.0,0.0,1.0,1,1.0,150.0,35.937,1,1.0,0,1.0,0,1.0,0,1.0,0,1.0
2583,'1',162.80312,59.105202,165.527,-36.097,1.0475,0,325.2,0.0,1.0,0.0,0.0,1.0,1,1.0,325.2,162.58,1,1.0,0,1.0,0,1.0,0,1.0,0,1.0
2584,'1',66.656124,76.656767,165.527,-36.097,1.0475,0,325.2,0.0,1.0,0.0,0.0,1.0,1,1.0,325.2,66.433,1,1.0,0,1.0,0,1.0,0,1.0,0,1.0
2588,'1',92.048321,-11.675579,49.523,-33.48,1.04,0,232.5,0.0,1.0,0.0,0.0,1.0,1,1.0,232.5,56.736,1,1.0,0,1.0,0,1.0,0,1.0,0,1.0
2591,'1',36.314432,-11.592,17.146,-11.592,1.0448126,0,80.5,0.0,1.0,0.0,0.0,1.0,1,1.0,80.5,25.199,1,1.0,0,1.0,0,1.0,0,1.0,0,1.0
2594,'1',79.6,-8.8243713,16.955,-11.462,1.0521957,0,79.6,0.0,1.0,0.0,0.0,1.0,1,1.0,79.6,29.942,1,1.0,0,1.0,0,1.0,0,1.0,0,1.0
2598,'1',6.7118938,-2.1553962,10.307,-2.248,1.0515663,0,20.25,0.0,1.0,0.0,0.0,1.0,1,1.0,20.25,6.698,1,1.0,0,1.0,0,1.0,0,1.0,0,1.0
2598,'2',4.1768938,-2.1553962,10.307,-2.248,1.0515663,0,20.25,0.0,1.0,0.0,0.0,1.0,1,1.0,20.25,4.163,1,1.0,0,1.0,0,1.0,0,1.0,0,1.0
2604,'1',100.39802,15.993593,42.6,-28.8,1.048,0,200.0,0.0,1.0,0.0,0.0,1.0,1,1.0,200.0,75.326,1,1.0,0,1.0,0,1.0,0,1.0,0,1.0
2611,'1',112.09582,45.365545,199.426,-43.49,1.0045,0,391.8,0.0,1.0,0.0,0.0,1.0,1,1.0,391.8,111.827,1,1.0,0,1.0,0,1.0,0,1.0,0,1.0
2612,'1',189.21382,65.097273,199.426,-43.49,1.0045,0,391.8,0.0,1.0,0.0,0.0,1.0,1,1.0,391.8,188.945,1,1.0,0,1.0,0,1.0,0,1.0,0,1.0
2613,'1',101.50382,51.874172,199.426,-43.49,1.0045,0,391.8,0.0,1.0,0.0,0.0,1.0,1,1.0,391.8,101.235,1,1.0,0,1.0,0,1.0,0,1.0,0,1.0
2617,'1',22.0,-1.0337938,8.448,-1.078,1.0537428,0,22.0,0.0,1.0,0.0,0.0,1.0,1,1.0,22.0,2.376,1,1.0,0,1.0,0,1.0,0,1.0,0,1.0
2617,'2',22.0,-1.0337938,8.448,-1.078,1.0537428,0,22.0,0.0,1.0,0.0,0.0,1.0,1,1.0,22.0,6.487,1,1.0,0,1.0,0,1.0,0,1.0,0,1.0
2623,'1',241.417,-14.596,307.56,-80.52,1.043986,0,660.0,0.0,1.0,0.0,0.0,1.0,0,1.0,660.0,227.696,1,1.0,0,1.0,0,1.0,0,1.0,0,1.0
2624,'1',127.314,-23.923,307.56,-80.52,1.043986,0,660.0,0.0,1.0,0.0,0.0,1.0,0,1.0,660.0,113.593,1,1.0,0,1.0,0,1.0,0,1.0,0,1.0
2625,'1',191.129,-28.605,307.56,-80.52,1.043986,0,660.0,0.0,1.0,0.0,0.0,1.0,0,1.0,660.0,177.006,1,1.0,0,1.0,0,1.0,0,1.0,0,1.0
2630,'1',235.0296,-31.487189,61.472,-41.558,1.0405,0,288.6,0.0,1.0,0.0,0.0,1.0,1,1.0,288.6,123.187,1,1.0,0,1.0,0,1.0,0,1.0,0,1.0
2635,'1',122.55975,44.906925,51.333,-34.704,1.058,0,241.0,0.0,1.0,0.0,0.0,1.0,1,1.0,241.0,92.743,1,1.0,0,1.0,0,1.0,0,1.0,0,1.0
2638,'1',17.580343,-8.467,12.524,-8.467,1.0461588,0,58.8,0.0,1.0,0.0,0.0,1.0,1,1.0,58.8,7.225,1,1.0,0,1.0,0,1.0,0,1.0,0,1.0
2644,'1',51.669841,35.034124,35.278,-23.85,1.0090349,0,165.63,0.0,1.0,0.0,0.0,1.0,1,1.0,165.625,23.039,1,1.0,0,1.0,0,1.0,0,1.0,0,1.0
2645,'1',80.250641,35.226524,35.278,-23.85,1.0059916,0,165.63,0.0,1.0,0.0,0.0,1.0,1,1.0,165.625,58.765,1,1.0,0,1.0,0,1.0,0,1.0,0,1.0
2646,'1',69.027441,35.161165,35.278,-23.85,1.0054542,0,165.63,0.0,1.0,0.0,0.0,1.0,1,1.0,165.625,44.736,1,1.0,0,1.0,0,1.0,0,1.0,0,1.0
2647,'1',48.442641,-11.52889,35.278,-23.85,1.04,0,165.63,0.0,1.0,0.0,0.0,1.0,1,1.0,165.625,19.005,1,1.0,0,1.0,0,1.0,0,1.0,0,1.0
2651,'1',38.526563,-16.099469,80.541,-17.564,1.0405,0,158.23,0.0,1.0,0.0,0.0,1.0,1,1.0,158.233,38.418,1,1.0,0,1.0,0,1.0,0,1.0,0,1.0
2652,'1',66.849563,-17.409502,80.541,-17.564,1.0448674,0,158.23,0.0,1.0,0.0,0.0,1.0,1,1.0,158.233,66.741,1,1.0,0,1.0,0,1.0,0,1.0,0,1.0
2653,'1',24.705563,-14.972107,80.541,-17.564,1.0405,0,158.23,0.0,1.0,0.0,0.0,1.0,1,1.0,158.233,24.597,1,1.0,0,1.0,0,1.0,0,1.0,0,1.0
2657,'1',65.921993,-18.216,26.945,-18.216,1.0303689,0,126.5,0.0,1.0,0.0,0.0,1.0,1,1.0,126.5,50.669,1,1.0,0,1.0,0,1.0,0,1.0,0,1.0
2662,'1',116.62956,-10.684522,41.961,-28.368,1.0405,0,197.0,0.0,1.0,0.0,0.0,1.0,1,1.0,197.0,96.368,1,1.0,0,1.0,0,1.0,0,1.0,0,1.0
2665,'1',53.552109,-11.261,16.657,-11.261,1.0621195,0,78.2,0.0,1.0,0.0,0.0,1.0,1,1.0,78.2,27.384,1,1.0,0,1.0,0,1.0,0,1.0,0,1.0
2669,'1',86.276087,17.69262,93.537,-20.398,1.0585,0,183.77,0.0,1.0,0.0,0.0,1.0,1,1.0,183.767,86.15,1,1.0,0,1.0,0,1.0,0,1.0,0,1.0
2670,'1',72.212087,35.238416,93.537,-20.398,1.0585,0,183.77,0.0,1.0,0.0,0.0,1.0,1,1.0,183.767,72.086,1,1.0,0,1.0,0,1.0,0,1.0,0,1.0
2671,'1',21.342087,22.897157,93.537,-20.398,1.0585,0,183.77,0.0,1.0,0.0,0.0,1.0,1,1.0,183.767,21.216,1,1.0,0,1.0,0,1.0,0,1.0,0,1.0
2677,'1',29.906843,32.244931,94.844,-20.683,1.0525,0,186.33,0.0,1.0,0.0,0.0,1.0,1,1.0,186.333,29.779,1,1.0,0,1.0,0,1.0,0,1.0,0,1.0
2678,'1',88.408843,41.86142,94.844,-20.683,1.0525,0,186.33,0.0,1.0,0.0,0.0,1.0,1,1.0,186.333,88.281,1,1.0,0,1.0,0,1.0,0,1.0,0,1.0
2679,'1',69.551843,46.481701,94.844,-20.683,1.0525,0,186.33,0.0,1.0,0.0,0.0,1.0,1,1.0,186.333,69.424,1,1.0,0,1.0,0,1.0,0,1.0,0,1.0
2683,'1',283.2,-40.781,60.322,-40.781,1.0330996,0,283.2,0.0,1.0,0.0,0.0,1.0,1,1.0,283.2,79.964,1,1.0,0,1.0,0,1.0,0,1.0,0,1.0
2688,'1',203.0,26.944883,43.239,-29.232,1.0045,0,203.0,0.0,1.0,0.0,0.0,1.0,1,1.0,203.0,98.9,1,1.0,0,1.0,0,1.0,0,1.0,0,1.0
2691,'1',5.0305028,5.2357485,21.887,-4.773,1.0385,0,43.0,0.0,1.0,0.0,0.0,1.0,1,1.0,43.0,5.001,1,1.0,0,1.0,0,1.0,0,1.0,0,1.0
2692,'1',21.511503,-4.773,21.887,-4.773,1.042487,0,43.0,0.0,1.0,0.0,0.0,1.0,1,1.0,43.0,21.482,1,1.0,0,1.0,0,1.0,0,1.0,0,1.0
...
0 / END OF GENERATOR DATA BEGIN BRANCH DATA
1,10,'1',0.0087,0.04508,0.03012,161.0,161.0,161.0,0.0,0.0,0.0,0.0,1,1,0.0,1,1.0,0,1.0,0,1.0,0,1.0
2,5,'1',0.04168,0.15499,0.06378,172.6,172.6,172.6,0.0,0.0,0.0,0.0,1,1,0.0,1,1.0,0,1.0,0,1.0,0,1.0
2,2971,'1',0.0113,0.0609,0.01935,179.1,179.1,179.1,0.0,0.0,0.0,0.0,1,1,0.0,1,1.0,0,1.0,0,1.0,0,1.0
3,32,'1',0.02285,0.1258,0.02312,129.8,129.8,129.8,0.0,0.0,0.0,0.0,1,1,0.0,1,1.0,0,1.0,0,1.0,0,1.0
4,5,'1',0.00021,0.0011,0.0,99999.0,99999.0,99999.0,0.0,0.0,0.0,0.0,1,1,0.0,1,1.0,0,1.0,0,1.0,0,1.0
5,47,'1',0.01779,0.09175,0.1489,168.8,168.8,168.8,0.0,0.0,0.0,0.0,1,1,0.0,1,1.0,0,1.0,0,1.0,0,1.0
6,7,'1',0.01146,0.06161,0.01521,118.9,118.9,118.9,0.0,0.0,0.0,0.0,1,1,0.0,1,1.0,0,1.0,0,1.0,0,1.0
6,3839,'1',0.06146,0.23913,0.02814,132.4,132.4,132.4,0.0,0.0,0.0,0.0,1,1,0.0,1,1.0,0,1.0,0,1.0,0,1.0
7,3142,'1',0.01943,0.08611,0.03098,154.4,154.4,154.4,0.0,0.0,0.0,0.0,1,1,0.0,1,1.0,0,1.0,0,1.0,0,1.0
8,9,'1',0.04045,0.19503,0.02577,143.7,143.7,143.7,0.0,0.0,0.0,0.0,1,1,0.0,1,1.0,0,1.0,0,1.0,0,1.0
8,34,'1',0.03445,0.15102,0.02567,125.9,125.9,125.9,0.0,0.0,0.0,0.0,1,1,0.0,1,1.0,0,1.0,0,1.0,0,1.0
8,2798,'1',0.03757,0.171,0.015,165.0,165.0,165.0,0.0,0.0,0.0,0.0,1,1,0.0,1,1.0,0,1.0,0,1.0,0,1.0
10,11,'1',0.03459,0.13093,0.02825,179.5,179.5,179.5,0.0,0.0,0.0,0.0,1,1,0.0,1,1.0,0,1.0,0,1.0,0,1.0
12,14,'1',0.00024,0.00103,0.0,99999.0,99999.0,99999.0,0.0,0.0,0.0,0.0,1,1,0.0,1,1.0,0,1.0,0,1.0,0,1.0
12,15,'1',0.00028,0.00118,0.0,99999.0,99999.0,99999.0,0.0,0.0,0.0,0.0,1,1,0.0,1,1.0,0,1.0,0,1.0,0,1.0
13,11,'1',0.0115,0.05155,0.00995,186.6,186.6,186.6,0.0,0.0,0.0,0.0,1,1,0.0,1,1.0,0,1.0,0,1.0,0,1.0
13,25,'1',0.03053,0.12823,0.03996,170.2,170.2,170.2,0.0,0.0,0.0,0.0,1,1,0.0,1,1.0,0,1.0,0,1.0,0,1.0
15,2405,'1',0.00382,0.03136,0.07527,564.4,564.4,564.4,0.0,0.0,0.0,0.0,1,1,0.0,1,1.0,0,1.0,0,1.0,0,1.0
15,3118,'1',0.00577,0.05823,0.28363,602.8,602.8,602.8,0.0,0.0,0.0,0.0,1,1,0.0,1,1.0,0,1.0,0,1.0,0,1.0
16,18,'1',0.00029,0.00105,0.0,99999.0,99999.0,99999.0,0.0,0.0,0.0,0.0,1,1,0.0,1,1.0,0,1.0,0,1.0,0,1.0
16,19,'1',0.00021,0.00106,0.0,99999.0,99999.0,99999.0,0.0,0.0,0.0,0.0,1,1,0.0,1,1.0,0,1.0,0,1.0,0,1.0
17,70,'1',0.02482,0.12658,0.04798,148.2,148.2,148.2,0.0,0.0,0.0,0.0,1,1,0.0,1,1.0,0,1.0,0,1.0,0,1.0
19,3259,'1',0.01233,0.10016,0.25445,532.2,532.2,532.2,0.0,0.0,0.0,0.0,1,1,0.0,1,1.0,0,1.0,0,1.0,0,1.0
20,22,'1',0.00021,0.00114,0.0,99999.0,99999.0,99999.0,0.0,0.0,0.0,0.0,1,1,0.0,1,1.0,0,1.0,0,1.0,0,1.0
20,23,'1',0.00028,0.00106,0.0,99999.0,99999.0,99999.0,0.0,0.0,0.0,0.0,1,1,0.0,1,1.0,0,1.0,0,1.0,0,1.0
21,9,'1',0.0449,0.16501,0.01666,108.5,108.5,108.5,0.0,0.0,0.0,0.0,1,1,0.0,1,1.0,0,1.0,0,1.0,0,1.0
22,3615,'1',0.00793,0.06747,0.23868,597.9,597.9,597.9,0.0,0.0,0.0,0.0,1,1,0.0,1,1.0,0,1.0,0,1.0,0,1.0
24,32,'1',0.01064,0.03316,0.00869,147.4,147.4,147.4,0.0,0.0,0.0,0.0,1,1,0.0,1,1.0,0,1.0,0,1.0,0,1.0
25,24,'1',0.00921,0.03545,0.00947,146.1,146.1,146.1,0.0,0.0,0.0,0.0,1,1,0.0,1,1.0,0,1.0,0,1.0,0,1.0
25,43,'1',0.00594,0.0302,0.03786,175.1,175.1,175.1,0.0,0.0,0.0,0.0,1,1,0.0,1,1.0,0,1.0,0,1.0,0,1.0
26,2572,'1',0.0208,0.09668,0.02411,135.6,135.6,135.6,0.0,0.0,0.0,0.0,1,1,0.0,1,1.0,0,1.0,0,1.0,0,1.0
26,3467,'1',0.05134,0.25172,0.03633,160.0,160.0,160.0,0.0,0.0,0.0,0.0,1,1,0.0,1,1.0,0,1.0,0,1.0,0,1.0
27,30,'1',0.00029,0.00101,0.0,99999.0,99999.0,99999.0,0.0,0.0,0.0,0.0,1,1,0.0,1,1.0,0,1.0,0,1.0,0,1.0
27,2585,'1',0.00049,0.00859,1.20744,2730.0,2730.0,2730.0,0.0,0.0,0.0,0.0,1,1,0.0,1,1.0,0,1.0,0,1.0,0,1.0
27,3124,'1',0.001,0.01944,2.12114,2885.3,2885.3,2885.3,0.0,0.0,0.0,0.0,1,1,0.0,1,1.0,0,1.0,0,1.0,0,1.0
28,31,'1',0.0003,0.00103,0.0,99999.0,99999.0,99999.0,0.0,0.0,0.0,0.0,1,1,0.0,1,1.0,0,1.0,0,1.0,0,1.0
29,3557,'1',0.00452,0.02384,0.01438,170.8,170.8,170.8,0.0,0.0,0.0,0.0,1,1,0.0,1,1.0,0,1.0,0,1.0,0,1.0
31,65,'1',0.00329,0.03121,0.15293,513.4,513.4,513.4,0.0,0.0,0.0,0.0,1,1,0.0,1,1.0,0,1.0,0,1.0,0,1.0
31,2574,'1',0.00652,0.0629,0.18163,513.0,513.0,513.0,0.0,0.0,0.0,0.0,1,1,0.0,1,1.0,0,1.0,0,1.0,0,1.0
31,3567,'1',0.00127,0.01143,0.03245,651.5,651.5,651.5,0.0,0.0,0.0,0.0,1,1,0.0,1,1.0,0,1.0,0,1.0,0,1.0
31,3567,'2',0.00127,0.01143,0.03245,651.5,651.5,651.5,0.0,0.0,0.0,0.0,1,1,0.0,1,1.0,0,1.0,0,1.0,0,1.0
32,33,'1',0.00021,0.00116,0.0,99999.0,99999.0,99999.0,0.0,0.0,0.0,0.0,1,1,0.0,1,1.0,0,1.0,0,1.0,0,1.0
32,2282,'1',0.00716,0.03527,0.01736,178.4,178.4,178.4,0.0,0.0,0.0,0.0,1,1,0.0,1,1.0,0,1.0,0,1.0,0,1.0
34,56,'1',0.03264,0.16102,0.02997,134.9,134.9,134.9,0.0,0.0,0.0,0.0,1,1,0.0,1,1.0,0,1.0,0,1.0,0,1.0
35,36,'1',0.00024,0.00114,0.0,99999.0,99999.0,99999.0,0.0,0.0,0.0,0.0,1,1,0.0,1,1.0,0,1.0,0,1.0,0,1.0
35,62,'1',0.01883,0.10742,0.02725,115.3,115.3,115.3,0.0,0.0,0.0,0.0,1,1,0.0,1,1.0,0,1.0,0,1.0,0,1.0
37,39,'1',0.00025,0.00118,0.0,99999.0,99999.0,99999.0,0.0,0.0,0.0,0.0,1,1,0.0,1,1.0,0,1.0,0,1.0,0,1.0
37,2975,'1',0.00926,0.08957,0.19243,584.8,584.8,584.8,0.0,0.0,0.0,0.0,1,1,0.0,1,1.0,0,1.0,0,1.0,0,1.0
38,35,'1',0.01179,0.04912,0.01005,139.0,139.0,139.0,0.0,0.0,0.0,0.0,1,1,0.0,1,1.0,0,1.0,0,1.0,0,1.0
40,54,'1',0.00717,0.03214,0.01168,183.9,183.9,183.9,0.0,0.0,0.0,0.0,1,1,0.0,1,1.0,0,1.0,0,1.0,0,1.0
41,24,'1',0.00554,0.0269,0.01549,152.7,152.7,152.7,0.0,0.0,0.0,0.0,1,1,0.0,1,1.0,0,1.0,0,1.0,0,1.0
42,40,'1',0.00522,0.01499,0.00686,198.7,198.7,198.7,0.0,0.0,0.0,0.0,1,1,0.0,1,1.0,0,1.0,0,1.0,0,1.0
42,2282,'1',0.01068,0.05861,0.01552,200.1,200.1,200.1,0.0,0.0,0.0,0.0,1,1,0.0,1,1.0,0,1.0,0,1.0,0,1.0
43,41,'1',0.00246,0.01272,0.00586,168.0,168.0,168.0,0.0,0.0,0.0,0.0,1,1,0.0,1,1.0,0,1.0,0,1.0,0,1.0
43,3557,'1',0.00614,0.03023,0.00712,164.6,164.6,164.6,0.0,0.0,0.0,0.0,1,1,0.0,1,1.0,0,1.0,0,1.0,0,1.0
44,29,'1',0.00738,0.02468,0.00717,123.9,123.9,123.9,0.0,0.0,0.0,0.0,1,1,0.0,1,1.0,0,1.0,0,1.0,0,1.0
44,45,'1',0.0055,0.0265,0.0033,145.5,145.5,145.5,0.0,0.0,0.0,0.0,1,1,0.0,1,1.0,0,1.0,0,1.0,0,1.0
45,2282,'1',0.0079,0.04148,0.00396,162.4,162.4,162.4,0.0,0.0,0.0,0.0,1,1,0.0,1,1.0,0,1.0,0,1.0,0,1.0
46,38,'1',0.02563,0.14224,0.01306,169.3,169.3,169.3,0.0,0.0,0.0,0.0,1,1,0.0,1,1.0,0,1.0,0,1.0,0,1.0
48,47,'1',0.00865,0.03468,0.02152,166.3,166.3,166.3,0.0,0.0,0.0,0.0,1,1,0.0,1,1.0,0,1.0,0,1.0,0,1.0
48,71,'1',0.03201,0.12189,0.05261,176.6,176.6,176.6,0.0,0.0,0.0,0.0,1,1,0.0,1,1.0,0,1.0,0,1.0,0,1.0
49,50,'1',0.00022,0.00108,0.0,99999.0,99999.0,99999.0,0.0,0.0,0.0,0.0,1,1,0.0,1,1.0,0,1.0,0,1.0,0,1.0
50,86,'1',0.0328,0.16516,0.09333,116.2,116.2,116.2,0.0,0.0,0.0,0.0,1,1,0.0,1,1.0,0,1.0,0,1.0,0,1.0
51,59,'1',0.01464,0.04673,0.00744,114.8,114.8,114.8,0.0,0.0,0.0,0.0,1,1,0.0,1,1.0,0,1.0,0,1.0,0,1.0
52,53,'1',0.00021,0.00103,0.0,99999.0,99999.0,99999.0,0.0,0.0,0.0,0.0,1,1,0.0,1,1.0,0,1.0,0,1.0,0,1.0
53,54,'1',0.00707,0.03381,0.01158,147.3,147.3,147.3,0.0,0.0,0.0,0.0,1,1,0.0,1,1.0,0,1.0,0,1.0,0,1.0
53,59,'1',0.00623,0.0242,0.00374,121.3,121.3,121.3,0.0,0.0,0.0,0.0,1,1,0.0,1,1.0,0,1.0,0,1.0,0,1.0
54,51,'1',0.01384,0.04606,0.00524,145.7,145.7,145.7,0.0,0.0,0.0,0.0,1,1,0.0,1,1.0,0,1.0,0,1.0,0,1.0
54,55,'1',0.00027,0.00106,0.0,99999.0,99999.0,99999.0,0.0,0.0,0.0,0.0,1,1,0.0,1,1.0,0,1.0,0,1.0,0,1.0
56,46,'1',0.04103,0.16139,0.02102,159.3,159.3,159.3,0.0,0.0,0.0,0.0,1,1,0.0,1,1.0,0,1.0,0,1.0,0,1.0
56,57,'1',0.00022,0.00118,0.0,99999.0,99999.0,99999.0,0.0,0.0,0.0,0.0,1,1,0.0,1,1.0,0,1.0,0,1.0,0,1.0
56,96,'1',0.01994,0.09722,0.00985,136.4,136.4,136.4,0.0,0.0,0.0,0.0,1,1,0.0,1,1.0,0,1.0,0,1.0,0,1.0
58,64,'1',0.015,0.07401,0.00725,134.0,134.0,134.0,0.0,0.0,0.0,0.0,1,1,0.0,1,1.0,0,1.0,0,1.0,0,1.0
59,58,'1',0.00557,0.02601,0.00571,109.3,109.3,109.3,0.0,0.0,0.0,0.0,1,1,0.0,1,1.0,0,1.0,0,1.0,0,1.0
60,61,'1',0.0002,0.00106,0.0,99999.0,99999.0,99999.0,0.0,0.0,0.0,0.0,1,1,0.0,1,1.0,0,1.0,0,1.0,0,1.0
60,67,'1',0.00441,0.02151,0.01126,144.1,144.1,144.1,0.0,0.0,0.0,0.0,1,1,0.0,1,1.0,0,1.0,0,1.0,0,1.0
60,77,'1',0.00675,0.04224,0.01573,169.1,169.1,169.1,0.0,0.0,0.0,0.0,1,1,0.0,1,1.0,0,1.0,0,1.0,0,1.0
62,47,'1',0.0085,0.05417,0.06179,188.6,188.6,188.6,0.0,0.0,0.0,0.0,1,1,0.0,1,1.0,0,1.0,0,1.0,0,1.0
62,85,'1',0.01218,0.06348,0.01115,166.7,166.7,166.7,0.0,0.0,0.0,0.0,1,1,0.0,1,1.0,0,1.0,0,1.0,0,1.0
63,65,'1',0.0003,0.00111,0.0,99999.0,99999.0,99999.0,0.0,0.0,0.0,0.0,1,1,0.0,1,1.0,0,1.0,0,1.0,0,1.0
63,66,'1',0.0003,0.00116,0.0,99999.0,99999.0,99999.0,0.0,0.0,0.0,0.0,1,1,0.0,1,1.0,0,1.0,0,1.0,0,1.0
64,53,'1',0.00517,0.02427,0.00753,154.1,154.1,154.1,0.0,0.0,0.0,0.0,1,1,0.0,1,1.0,0,1.0,0,1.0,0,1.0
64,59,'1',0.00458,0.0236,0.00997,156.3,156.3,156.3,0.0,0.0,0.0,0.0,1,1,0.0,1,1.0,0,1.0,0,1.0,0,1.0
64,67,'1',0.00668,0.0258,0.00494,138.5,138.5,138.5,0.0,0.0,0.0,0.0,1,1,0.0,1,1.0,0,1.0,0,1.0,0,1.0
68,69,'1',0.00026,0.00104,0.0,99999.0,99999.0,99999.0,0.0,0.0,0.0,0.0,1,1,0.0,1,1.0,0,1.0,0,1.0,0,1.0
68,3394,'1',0.00964,0.03811,0.00673,120.4,120.4,120.4,0.0,0.0,0.0,0.0,1,1,0.0,1,1.0,0,1.0,0,1.0,0,1.0
70,68,'1',0.00842,0.04011,0.02742,161.6,161.6,161.6,0.0,0.0,0.0,0.0,1,1,0.0,1,1.0,0,1.0,0,1.0,0,1.0
70,2713,'1',0.01477,0.0596,0.01854,162.4,162.4,162.4,0.0,0.0,0.0,0.0,1,1,0.0,1,1.0,0,1.0,0,1.0,0,1.0
72,74,'1',0.00023,0.00109,0.0,99999.0,99999.0,99999.0,0.0,0.0,0.0,0.0,1,1,0.0,1,1.0,0,1.0,0,1.0,0,1.0
72,75,'1',0.00027,0.00118,0.0,99999.0,99999.0,99999.0,0.0,0.0,0.0,0.0,1,1,0.0,1,1.0,0,1.0,0,1.0,0,1.0
73,71,'1',0.0162,0.0528,0.0087,182.0,182.0,182.0,0.0,0.0,0.0,0.0,1,1,0.0,1,1.0,0,1.0,0,1.0,0,1.0
75,3713,'1',0.00519,0.04788,0.20757,615.4,615.4,615.4,0.0,0.0,0.0,0.0,1,1,0.0,1,1.0,0,1.0,0,1.0,0,1.0
76,58,'1',0.01303,0.04777,0.02234,147.7,147.7,147.7,0.0,0.0,0.0,0.0,1,1,0.0,1,1.0,0,1.0,0,1.0,0,1.0
76,77,'1',0.01118,0.05743,0.0095,160.5,160.5,160.5,0.0,0.0,0.0,0.0,1,1,0.0,1,1.0,0,1.0,0,1.0,0,1.0
77,2282,'1',0.01741,0.07702,0.0321,199.3,199.3,199.3,0.0,0.0,0.0,0.0,1,1,0.0,1,1.0,0,1.0,0,1.0,0,1.0
78,68,'1',0.03304,0.12753,0.01506,148.5,148.5,148.5,0.0,0.0,0.0,0.0,1,1,0.0,1,1.0,0,1.0,0,1.0,0,1.0
...